/*---------------------------------------------------------------------------*\
| =========                 |                                                 |
| \\      /  F ield         | OpenFOAM: The Open Source CFD Toolbox           |
|  \\    /   O peration     | Version:  2.4.0                                 |
|   \\  /    A nd           | Web:      www.OpenFOAM.org                      |
|    \\/     M anipulation  |                                                 |
\*---------------------------------------------------------------------------*/
Build  : 2.4.0-dcea1e13ff76
Exec   : simpleFoam
Date   : May 14 2016
Time   : 20:27:13
Host   : "adriaan-VirtualBox"
PID    : 7178
Case   : /home/adriaan/OpenFOAM/adriaan-2.4.0/run/2DPorokEps
nProcs : 1
sigFpe : Enabling floating point exception trapping (FOAM_SIGFPE).
fileModificationChecking : Monitoring run-time modified files using timeStampMaster
allowSystemOperations : Allowing user-supplied system call operations

// * * * * * * * * * * * * * * * * * * * * * * * * * * * * * * * * * * * * * //
Create time

Create mesh for time = 0

Reading field p

Reading field U

Reading/calculating face flux field phi

Selecting incompressible transport model Newtonian
Selecting RAS turbulence model laminar
No finite volume options present


SIMPLE: convergence criteria
    field p	 tolerance 0.01
    field U	 tolerance 0.001
    field "(k|epsilon|omega)"	 tolerance 0.001


Starting time loop

faceSource inletPressurePlane:
    total faces  = 420
    total area   = 5.14e-05


faceSource outletPressurePlane:
    total faces  = 480
    total area   = 5.14e-05


Time = 1

smoothSolver:  Solving for Ux, Initial residual = 1, Final residual = 0.000293968, No Iterations 5
smoothSolver:  Solving for Uy, Initial residual = 0, Final residual = 0, No Iterations 0
GAMG:  Solving for p, Initial residual = 1, Final residual = 0.0492533, No Iterations 65
GAMG:  Solving for p, Initial residual = 0.00225732, Final residual = 2.35215e-05, No Iterations 3
GAMG:  Solving for p, Initial residual = 0.00034413, Final residual = 8.90652e-06, No Iterations 3
GAMG:  Solving for p, Initial residual = 0.000115317, Final residual = 3.31357e-06, No Iterations 3
time step continuity errors : sum local = 0.000714449, global = 1.06552e-06, cumulative = 1.06552e-06
ExecutionTime = 5.77 s  ClockTime = 6 s

fieldMinMax fieldMinMax1 output:
    min(mag(U)) = 0 at location (0.699877 -0.0254785 0.0005)
    max(mag(U)) = 0.038273 at location (0.452411 0.011896 0.0005)

faceSource inletPressurePlane output:
    areaAverage(bla) of p = 0.222345

faceSource outletPressurePlane output:
    areaAverage(bla) of p = 0.00407573

Time = 2

smoothSolver:  Solving for Ux, Initial residual = 0.450088, Final residual = 0.000327068, No Iterations 6
smoothSolver:  Solving for Uy, Initial residual = 0.334497, Final residual = 0.00028598, No Iterations 5
GAMG:  Solving for p, Initial residual = 0.00628204, Final residual = 0.000308077, No Iterations 6
GAMG:  Solving for p, Initial residual = 0.00103067, Final residual = 3.60014e-05, No Iterations 11
GAMG:  Solving for p, Initial residual = 0.000480226, Final residual = 1.60903e-05, No Iterations 10
GAMG:  Solving for p, Initial residual = 0.000143076, Final residual = 8.82563e-06, No Iterations 13
time step continuity errors : sum local = 0.00174235, global = -6.79271e-07, cumulative = 3.86245e-07
ExecutionTime = 8.2 s  ClockTime = 8 s

fieldMinMax fieldMinMax1 output:
    min(mag(U)) = 0 at location (0.510757 -0.0257 0.0005)
    max(mag(U)) = 0.0661925 at location (0.452411 0.011896 0.0005)

faceSource inletPressurePlane output:
    areaAverage(bla) of p = 0.398791

faceSource outletPressurePlane output:
    areaAverage(bla) of p = 0.00385277

Time = 3

smoothSolver:  Solving for Ux, Initial residual = 0.296686, Final residual = 0.000205422, No Iterations 6
smoothSolver:  Solving for Uy, Initial residual = 0.223984, Final residual = 0.0002135, No Iterations 5
GAMG:  Solving for p, Initial residual = 0.00505838, Final residual = 0.000152364, No Iterations 5
GAMG:  Solving for p, Initial residual = 0.00195584, Final residual = 8.52361e-05, No Iterations 3
GAMG:  Solving for p, Initial residual = 0.000422579, Final residual = 1.80897e-05, No Iterations 11
GAMG:  Solving for p, Initial residual = 0.000372021, Final residual = 1.41187e-05, No Iterations 5
time step continuity errors : sum local = 0.00100001, global = 4.14955e-06, cumulative = 4.5358e-06
ExecutionTime = 10.08 s  ClockTime = 10 s

fieldMinMax fieldMinMax1 output:
    min(mag(U)) = 0 at location (0.510757 -0.0257 0.0005)
    max(mag(U)) = 0.117489 at location (0.452411 0.011896 0.0005)

faceSource inletPressurePlane output:
    areaAverage(bla) of p = 0.362629

faceSource outletPressurePlane output:
    areaAverage(bla) of p = 0.000332787

Time = 4

smoothSolver:  Solving for Ux, Initial residual = 0.0905181, Final residual = 4.1786e-05, No Iterations 6
smoothSolver:  Solving for Uy, Initial residual = 0.0982105, Final residual = 3.05733e-05, No Iterations 6
GAMG:  Solving for p, Initial residual = 0.00499249, Final residual = 0.000168161, No Iterations 5
GAMG:  Solving for p, Initial residual = 0.00331489, Final residual = 0.0001494, No Iterations 6
GAMG:  Solving for p, Initial residual = 0.00367136, Final residual = 0.000174947, No Iterations 11
GAMG:  Solving for p, Initial residual = 0.0168799, Final residual = 0.000768885, No Iterations 12
time step continuity errors : sum local = 0.00157073, global = 6.15262e-07, cumulative = 5.15106e-06
ExecutionTime = 12.28 s  ClockTime = 12 s

fieldMinMax fieldMinMax1 output:
    min(mag(U)) = 0 at location (0.510757 -0.0257 0.0005)
    max(mag(U)) = 0.141577 at location (0.452411 0.011896 0.0005)

faceSource inletPressurePlane output:
    areaAverage(bla) of p = 0.250876

faceSource outletPressurePlane output:
    areaAverage(bla) of p = -0.00241072

Time = 5

smoothSolver:  Solving for Ux, Initial residual = 0.0899835, Final residual = 7.5044e-05, No Iterations 6
smoothSolver:  Solving for Uy, Initial residual = 0.0553495, Final residual = 4.574e-05, No Iterations 5
GAMG:  Solving for p, Initial residual = 0.00555162, Final residual = 0.000141634, No Iterations 5
GAMG:  Solving for p, Initial residual = 0.00252327, Final residual = 9.91798e-05, No Iterations 8
GAMG:  Solving for p, Initial residual = 0.00287578, Final residual = 0.000124826, No Iterations 9
GAMG:  Solving for p, Initial residual = 0.00300739, Final residual = 0.00012469, No Iterations 14
time step continuity errors : sum local = 0.00073568, global = 3.10082e-06, cumulative = 8.25188e-06
ExecutionTime = 14.48 s  ClockTime = 14 s

fieldMinMax fieldMinMax1 output:
    min(mag(U)) = 0 at location (0.510757 -0.0257 0.0005)
    max(mag(U)) = 0.140482 at location (0.452305 0.0119769 0.0005)

faceSource inletPressurePlane output:
    areaAverage(bla) of p = 0.177543

faceSource outletPressurePlane output:
    areaAverage(bla) of p = -0.00213881

Time = 6

smoothSolver:  Solving for Ux, Initial residual = 0.106352, Final residual = 8.4842e-05, No Iterations 6
smoothSolver:  Solving for Uy, Initial residual = 0.0741737, Final residual = 7.356e-05, No Iterations 5
GAMG:  Solving for p, Initial residual = 0.00626306, Final residual = 0.00019594, No Iterations 5
GAMG:  Solving for p, Initial residual = 0.00186797, Final residual = 7.59573e-05, No Iterations 4
GAMG:  Solving for p, Initial residual = 0.000413875, Final residual = 1.97323e-05, No Iterations 7
GAMG:  Solving for p, Initial residual = 0.000229543, Final residual = 1.13865e-05, No Iterations 5
time step continuity errors : sum local = 0.000461792, global = 7.44109e-07, cumulative = 8.99599e-06
ExecutionTime = 16.2 s  ClockTime = 16 s

fieldMinMax fieldMinMax1 output:
    min(mag(U)) = 0 at location (0.510757 -0.0257 0.0005)
    max(mag(U)) = 0.133847 at location (0.452305 0.0119769 0.0005)

faceSource inletPressurePlane output:
    areaAverage(bla) of p = 0.169897

faceSource outletPressurePlane output:
    areaAverage(bla) of p = -2.64431e-05

Time = 7

smoothSolver:  Solving for Ux, Initial residual = 0.0562313, Final residual = 2.76316e-05, No Iterations 6
smoothSolver:  Solving for Uy, Initial residual = 0.0635412, Final residual = 2.22151e-05, No Iterations 6
GAMG:  Solving for p, Initial residual = 0.0052536, Final residual = 0.00017908, No Iterations 5
GAMG:  Solving for p, Initial residual = 0.00146025, Final residual = 4.79749e-05, No Iterations 4
GAMG:  Solving for p, Initial residual = 0.000327666, Final residual = 1.31354e-05, No Iterations 18
GAMG:  Solving for p, Initial residual = 0.000209127, Final residual = 7.10676e-06, No Iterations 3
time step continuity errors : sum local = 0.000453492, global = -6.51957e-07, cumulative = 8.34403e-06
ExecutionTime = 18.23 s  ClockTime = 18 s

fieldMinMax fieldMinMax1 output:
    min(mag(U)) = 0 at location (0.510757 -0.0257 0.0005)
    max(mag(U)) = 0.128331 at location (0.452305 0.0119769 0.0005)

faceSource inletPressurePlane output:
    areaAverage(bla) of p = 0.193443

faceSource outletPressurePlane output:
    areaAverage(bla) of p = 0.00144719

Time = 8

smoothSolver:  Solving for Ux, Initial residual = 0.0687621, Final residual = 6.10936e-05, No Iterations 6
smoothSolver:  Solving for Uy, Initial residual = 0.0404605, Final residual = 3.88506e-05, No Iterations 5
GAMG:  Solving for p, Initial residual = 0.00401286, Final residual = 0.000162724, No Iterations 4
GAMG:  Solving for p, Initial residual = 0.0010416, Final residual = 3.80199e-05, No Iterations 9
GAMG:  Solving for p, Initial residual = 0.000330163, Final residual = 1.42537e-05, No Iterations 10
GAMG:  Solving for p, Initial residual = 0.000110498, Final residual = 9.30114e-06, No Iterations 4
time step continuity errors : sum local = 0.00062744, global = -4.48685e-07, cumulative = 7.89535e-06
ExecutionTime = 20.14 s  ClockTime = 20 s

fieldMinMax fieldMinMax1 output:
    min(mag(U)) = 0 at location (0.510757 -0.0257 0.0005)
    max(mag(U)) = 0.126626 at location (0.452305 0.0119769 0.0005)

faceSource inletPressurePlane output:
    areaAverage(bla) of p = 0.216354

faceSource outletPressurePlane output:
    areaAverage(bla) of p = 0.00117486

Time = 9

smoothSolver:  Solving for Ux, Initial residual = 0.0590617, Final residual = 5.17409e-05, No Iterations 6
smoothSolver:  Solving for Uy, Initial residual = 0.0367511, Final residual = 1.19863e-05, No Iterations 6
GAMG:  Solving for p, Initial residual = 0.0028554, Final residual = 0.00012055, No Iterations 5
GAMG:  Solving for p, Initial residual = 0.000993496, Final residual = 3.90787e-05, No Iterations 3
GAMG:  Solving for p, Initial residual = 0.000204767, Final residual = 9.55895e-06, No Iterations 10
GAMG:  Solving for p, Initial residual = 0.000124345, Final residual = 6.23959e-06, No Iterations 6
time step continuity errors : sum local = 0.000370283, global = -1.06323e-07, cumulative = 7.78902e-06
ExecutionTime = 21.95 s  ClockTime = 22 s

fieldMinMax fieldMinMax1 output:
    min(mag(U)) = 0 at location (0.510757 -0.0257 0.0005)
    max(mag(U)) = 0.12642 at location (0.452411 0.011896 0.0005)

faceSource inletPressurePlane output:
    areaAverage(bla) of p = 0.223284

faceSource outletPressurePlane output:
    areaAverage(bla) of p = -6.41654e-05

Time = 10

smoothSolver:  Solving for Ux, Initial residual = 0.0292821, Final residual = 1.64754e-05, No Iterations 6
smoothSolver:  Solving for Uy, Initial residual = 0.0316888, Final residual = 1.27122e-05, No Iterations 6
GAMG:  Solving for p, Initial residual = 0.00240347, Final residual = 0.000111901, No Iterations 5
GAMG:  Solving for p, Initial residual = 0.000790842, Final residual = 2.8765e-05, No Iterations 4
GAMG:  Solving for p, Initial residual = 0.000174096, Final residual = 6.11827e-06, No Iterations 5
GAMG:  Solving for p, Initial residual = 7.98513e-05, Final residual = 4.4218e-06, No Iterations 3
time step continuity errors : sum local = 0.000235175, global = 5.00736e-08, cumulative = 7.8391e-06
ExecutionTime = 23.54 s  ClockTime = 23 s

fieldMinMax fieldMinMax1 output:
    min(mag(U)) = 0 at location (0.510757 -0.0257 0.0005)
    max(mag(U)) = 0.128109 at location (0.452411 0.011896 0.0005)

faceSource inletPressurePlane output:
    areaAverage(bla) of p = 0.219597

faceSource outletPressurePlane output:
    areaAverage(bla) of p = -0.000849475

Time = 11

smoothSolver:  Solving for Ux, Initial residual = 0.0361937, Final residual = 3.29554e-05, No Iterations 6
smoothSolver:  Solving for Uy, Initial residual = 0.0221947, Final residual = 7.49997e-06, No Iterations 6
GAMG:  Solving for p, Initial residual = 0.00234429, Final residual = 9.41989e-05, No Iterations 5
GAMG:  Solving for p, Initial residual = 0.000692639, Final residual = 2.8286e-05, No Iterations 4
GAMG:  Solving for p, Initial residual = 0.000156129, Final residual = 8.92933e-06, No Iterations 4
GAMG:  Solving for p, Initial residual = 7.62898e-05, Final residual = 5.98964e-06, No Iterations 4
time step continuity errors : sum local = 0.000312163, global = -9.21727e-08, cumulative = 7.74692e-06
ExecutionTime = 25.14 s  ClockTime = 25 s

fieldMinMax fieldMinMax1 output:
    min(mag(U)) = 0 at location (0.510757 -0.0257 0.0005)
    max(mag(U)) = 0.128945 at location (0.452411 0.011896 0.0005)

faceSource inletPressurePlane output:
    areaAverage(bla) of p = 0.214497

faceSource outletPressurePlane output:
    areaAverage(bla) of p = -0.000631913

Time = 12

smoothSolver:  Solving for Ux, Initial residual = 0.0283551, Final residual = 2.45646e-05, No Iterations 6
smoothSolver:  Solving for Uy, Initial residual = 0.0209868, Final residual = 7.49894e-06, No Iterations 6
GAMG:  Solving for p, Initial residual = 0.00187862, Final residual = 8.41587e-05, No Iterations 5
GAMG:  Solving for p, Initial residual = 0.000678643, Final residual = 2.10597e-05, No Iterations 3
GAMG:  Solving for p, Initial residual = 0.00013942, Final residual = 8.49663e-06, No Iterations 4
GAMG:  Solving for p, Initial residual = 7.68074e-05, Final residual = 9.78211e-06, No Iterations 4
time step continuity errors : sum local = 0.00052493, global = -2.22333e-06, cumulative = 5.5236e-06
ExecutionTime = 26.7 s  ClockTime = 27 s

fieldMinMax fieldMinMax1 output:
    min(mag(U)) = 0 at location (0.510757 -0.0257 0.0005)
    max(mag(U)) = 0.130071 at location (0.452305 0.0119769 0.0005)

faceSource inletPressurePlane output:
    areaAverage(bla) of p = 0.212128

faceSource outletPressurePlane output:
    areaAverage(bla) of p = 7.69863e-05

Time = 13

smoothSolver:  Solving for Ux, Initial residual = 0.0167411, Final residual = 9.40913e-06, No Iterations 6
smoothSolver:  Solving for Uy, Initial residual = 0.0195108, Final residual = 8.16421e-06, No Iterations 6
GAMG:  Solving for p, Initial residual = 0.00161999, Final residual = 7.04093e-05, No Iterations 5
GAMG:  Solving for p, Initial residual = 0.000476228, Final residual = 1.13643e-05, No Iterations 4
GAMG:  Solving for p, Initial residual = 0.00010745, Final residual = 9.67011e-06, No Iterations 3
GAMG:  Solving for p, Initial residual = 5.43659e-05, Final residual = 4.96877e-06, No Iterations 4
time step continuity errors : sum local = 0.000270671, global = 3.08168e-06, cumulative = 8.60527e-06
ExecutionTime = 28.25 s  ClockTime = 28 s

fieldMinMax fieldMinMax1 output:
    min(mag(U)) = 0 at location (0.510757 -0.0257 0.0005)
    max(mag(U)) = 0.132232 at location (0.452305 0.0119769 0.0005)

faceSource inletPressurePlane output:
    areaAverage(bla) of p = 0.212494

faceSource outletPressurePlane output:
    areaAverage(bla) of p = 0.00050673

Time = 14

smoothSolver:  Solving for Ux, Initial residual = 0.0229768, Final residual = 2.02149e-05, No Iterations 6
smoothSolver:  Solving for Uy, Initial residual = 0.0152617, Final residual = 5.02816e-06, No Iterations 6
GAMG:  Solving for p, Initial residual = 0.00157166, Final residual = 6.04505e-05, No Iterations 5
GAMG:  Solving for p, Initial residual = 0.000437324, Final residual = 2.15715e-05, No Iterations 3
GAMG:  Solving for p, Initial residual = 0.000100351, Final residual = 3.7624e-06, No Iterations 4
GAMG:  Solving for p, Initial residual = 4.7016e-05, Final residual = 3.36582e-06, No Iterations 3
time step continuity errors : sum local = 0.000182661, global = 1.97266e-07, cumulative = 8.80254e-06
ExecutionTime = 29.8 s  ClockTime = 30 s

fieldMinMax fieldMinMax1 output:
    min(mag(U)) = 0 at location (0.510757 -0.0257 0.0005)
    max(mag(U)) = 0.133363 at location (0.452305 0.0119769 0.0005)

faceSource inletPressurePlane output:
    areaAverage(bla) of p = 0.213121

faceSource outletPressurePlane output:
    areaAverage(bla) of p = 0.000346781

Time = 15

smoothSolver:  Solving for Ux, Initial residual = 0.01718, Final residual = 1.38498e-05, No Iterations 6
smoothSolver:  Solving for Uy, Initial residual = 0.0143752, Final residual = 5.21835e-06, No Iterations 6
GAMG:  Solving for p, Initial residual = 0.00126842, Final residual = 4.84429e-05, No Iterations 5
GAMG:  Solving for p, Initial residual = 0.000449203, Final residual = 1.5233e-05, No Iterations 4
GAMG:  Solving for p, Initial residual = 9.98582e-05, Final residual = 3.09694e-06, No Iterations 4
GAMG:  Solving for p, Initial residual = 4.46919e-05, Final residual = 3.82302e-06, No Iterations 3
time step continuity errors : sum local = 0.000206223, global = 6.2616e-08, cumulative = 8.86515e-06
ExecutionTime = 31.37 s  ClockTime = 31 s

fieldMinMax fieldMinMax1 output:
    min(mag(U)) = 0 at location (0.510757 -0.0257 0.0005)
    max(mag(U)) = 0.133203 at location (0.452305 0.0119769 0.0005)

faceSource inletPressurePlane output:
    areaAverage(bla) of p = 0.213417

faceSource outletPressurePlane output:
    areaAverage(bla) of p = -7.1025e-05

Time = 16

smoothSolver:  Solving for Ux, Initial residual = 0.011293, Final residual = 6.34706e-06, No Iterations 6
smoothSolver:  Solving for Uy, Initial residual = 0.0134815, Final residual = 5.45616e-06, No Iterations 6
GAMG:  Solving for p, Initial residual = 0.00112735, Final residual = 4.09938e-05, No Iterations 5
GAMG:  Solving for p, Initial residual = 0.000325988, Final residual = 1.04958e-05, No Iterations 4
GAMG:  Solving for p, Initial residual = 7.65775e-05, Final residual = 7.91225e-06, No Iterations 3
GAMG:  Solving for p, Initial residual = 3.96187e-05, Final residual = 2.20298e-06, No Iterations 3
time step continuity errors : sum local = 0.000118696, global = 1.82299e-07, cumulative = 9.04745e-06
ExecutionTime = 32.91 s  ClockTime = 33 s

fieldMinMax fieldMinMax1 output:
    min(mag(U)) = 0 at location (0.510757 -0.0257 0.0005)
    max(mag(U)) = 0.132207 at location (0.452305 0.0119769 0.0005)

faceSource inletPressurePlane output:
    areaAverage(bla) of p = 0.21334

faceSource outletPressurePlane output:
    areaAverage(bla) of p = -0.000289019

Time = 17

smoothSolver:  Solving for Ux, Initial residual = 0.0142299, Final residual = 1.16427e-05, No Iterations 6
smoothSolver:  Solving for Uy, Initial residual = 0.0110839, Final residual = 3.49334e-06, No Iterations 6
GAMG:  Solving for p, Initial residual = 0.00110355, Final residual = 3.22005e-05, No Iterations 5
GAMG:  Solving for p, Initial residual = 0.000305221, Final residual = 1.34775e-05, No Iterations 4
GAMG:  Solving for p, Initial residual = 7.44026e-05, Final residual = 5.98716e-06, No Iterations 3
GAMG:  Solving for p, Initial residual = 3.63388e-05, Final residual = 1.47966e-06, No Iterations 3
time step continuity errors : sum local = 8.00559e-05, global = -5.90894e-07, cumulative = 8.45656e-06
ExecutionTime = 34.44 s  ClockTime = 34 s

fieldMinMax fieldMinMax1 output:
    min(mag(U)) = 0 at location (0.510757 -0.0257 0.0005)
    max(mag(U)) = 0.131144 at location (0.452305 0.0119769 0.0005)

faceSource inletPressurePlane output:
    areaAverage(bla) of p = 0.213248

faceSource outletPressurePlane output:
    areaAverage(bla) of p = -0.000181263

Time = 18

smoothSolver:  Solving for Ux, Initial residual = 0.0107926, Final residual = 7.68075e-06, No Iterations 6
smoothSolver:  Solving for Uy, Initial residual = 0.0109489, Final residual = 3.96967e-06, No Iterations 6
GAMG:  Solving for p, Initial residual = 0.000931902, Final residual = 3.36102e-05, No Iterations 5
GAMG:  Solving for p, Initial residual = 0.000318629, Final residual = 1.39468e-05, No Iterations 4
GAMG:  Solving for p, Initial residual = 7.95304e-05, Final residual = 9.6026e-06, No Iterations 3
GAMG:  Solving for p, Initial residual = 4.22123e-05, Final residual = 1.92294e-06, No Iterations 3
time step continuity errors : sum local = 0.000104595, global = 2.68647e-08, cumulative = 8.48342e-06
ExecutionTime = 35.95 s  ClockTime = 36 s

fieldMinMax fieldMinMax1 output:
    min(mag(U)) = 0 at location (0.510757 -0.0257 0.0005)
    max(mag(U)) = 0.130587 at location (0.452305 0.0119769 0.0005)

faceSource inletPressurePlane output:
    areaAverage(bla) of p = 0.213425

faceSource outletPressurePlane output:
    areaAverage(bla) of p = 5.72286e-05

Time = 19

smoothSolver:  Solving for Ux, Initial residual = 0.00836981, Final residual = 4.34333e-06, No Iterations 6
smoothSolver:  Solving for Uy, Initial residual = 0.0104412, Final residual = 3.89323e-06, No Iterations 6
GAMG:  Solving for p, Initial residual = 0.00086309, Final residual = 2.82481e-05, No Iterations 6
GAMG:  Solving for p, Initial residual = 0.000251752, Final residual = 1.21227e-05, No Iterations 3
GAMG:  Solving for p, Initial residual = 6.44874e-05, Final residual = 4.48126e-06, No Iterations 4
GAMG:  Solving for p, Initial residual = 3.39539e-05, Final residual = 2.85643e-06, No Iterations 3
time step continuity errors : sum local = 0.000155642, global = -6.43231e-07, cumulative = 7.84019e-06
ExecutionTime = 37.51 s  ClockTime = 37 s

fieldMinMax fieldMinMax1 output:
    min(mag(U)) = 0 at location (0.510757 -0.0257 0.0005)
    max(mag(U)) = 0.130655 at location (0.452305 0.0119769 0.0005)

faceSource inletPressurePlane output:
    areaAverage(bla) of p = 0.213812

faceSource outletPressurePlane output:
    areaAverage(bla) of p = 0.000168592

Time = 20

smoothSolver:  Solving for Ux, Initial residual = 0.00985922, Final residual = 6.97431e-06, No Iterations 6
smoothSolver:  Solving for Uy, Initial residual = 0.00892677, Final residual = 8.55691e-06, No Iterations 5
GAMG:  Solving for p, Initial residual = 0.000825128, Final residual = 2.37382e-05, No Iterations 5
GAMG:  Solving for p, Initial residual = 0.000236433, Final residual = 5.87216e-06, No Iterations 3
GAMG:  Solving for p, Initial residual = 5.35545e-05, Final residual = 7.9184e-06, No Iterations 3
GAMG:  Solving for p, Initial residual = 3.53429e-05, Final residual = 1.70114e-06, No Iterations 3
time step continuity errors : sum local = 9.21893e-05, global = 2.00449e-06, cumulative = 9.84469e-06
ExecutionTime = 39 s  ClockTime = 39 s

fieldMinMax fieldMinMax1 output:
    min(mag(U)) = 0 at location (0.510757 -0.0257 0.0005)
    max(mag(U)) = 0.131065 at location (0.452305 0.0119769 0.0005)

faceSource inletPressurePlane output:
    areaAverage(bla) of p = 0.213848

faceSource outletPressurePlane output:
    areaAverage(bla) of p = 0.000103055

Time = 21

smoothSolver:  Solving for Ux, Initial residual = 0.0078506, Final residual = 4.61394e-06, No Iterations 6
smoothSolver:  Solving for Uy, Initial residual = 0.00901341, Final residual = 2.96567e-06, No Iterations 6
GAMG:  Solving for p, Initial residual = 0.000726003, Final residual = 2.28549e-05, No Iterations 6
GAMG:  Solving for p, Initial residual = 0.000240798, Final residual = 4.55955e-06, No Iterations 5
GAMG:  Solving for p, Initial residual = 6.03499e-05, Final residual = 2.73129e-06, No Iterations 3
GAMG:  Solving for p, Initial residual = 3.28456e-05, Final residual = 2.62917e-06, No Iterations 3
time step continuity errors : sum local = 0.000142392, global = 1.70207e-06, cumulative = 1.15468e-05
ExecutionTime = 40.59 s  ClockTime = 40 s

fieldMinMax fieldMinMax1 output:
    min(mag(U)) = 0 at location (0.510757 -0.0257 0.0005)
    max(mag(U)) = 0.13145 at location (0.452305 0.0119769 0.0005)

faceSource inletPressurePlane output:
    areaAverage(bla) of p = 0.213965

faceSource outletPressurePlane output:
    areaAverage(bla) of p = -3.19374e-05

Time = 22

smoothSolver:  Solving for Ux, Initial residual = 0.00655208, Final residual = 3.012e-06, No Iterations 6
smoothSolver:  Solving for Uy, Initial residual = 0.00843965, Final residual = 2.77666e-06, No Iterations 6
GAMG:  Solving for p, Initial residual = 0.000683264, Final residual = 3.34407e-05, No Iterations 5
GAMG:  Solving for p, Initial residual = 0.000214708, Final residual = 5.22758e-06, No Iterations 5
GAMG:  Solving for p, Initial residual = 5.66681e-05, Final residual = 2.12716e-06, No Iterations 3
GAMG:  Solving for p, Initial residual = 2.9774e-05, Final residual = 1.94821e-06, No Iterations 3
time step continuity errors : sum local = 0.000105505, global = 1.49818e-06, cumulative = 1.30449e-05
ExecutionTime = 42.15 s  ClockTime = 42 s

fieldMinMax fieldMinMax1 output:
    min(mag(U)) = 0 at location (0.510757 -0.0257 0.0005)
    max(mag(U)) = 0.13159 at location (0.452305 0.0119769 0.0005)

faceSource inletPressurePlane output:
    areaAverage(bla) of p = 0.214013

faceSource outletPressurePlane output:
    areaAverage(bla) of p = -9.38189e-05

Time = 23

smoothSolver:  Solving for Ux, Initial residual = 0.00721454, Final residual = 4.35188e-06, No Iterations 6
smoothSolver:  Solving for Uy, Initial residual = 0.00758008, Final residual = 6.81277e-06, No Iterations 5
GAMG:  Solving for p, Initial residual = 0.000670618, Final residual = 3.17093e-05, No Iterations 3
GAMG:  Solving for p, Initial residual = 0.000197896, Final residual = 8.69144e-06, No Iterations 5
GAMG:  Solving for p, Initial residual = 7.1643e-05, Final residual = 4.48363e-06, No Iterations 3
GAMG:  Solving for p, Initial residual = 3.3139e-05, Final residual = 1.32206e-06, No Iterations 3
time step continuity errors : sum local = 7.15929e-05, global = -2.1183e-06, cumulative = 1.09266e-05
ExecutionTime = 43.63 s  ClockTime = 43 s

fieldMinMax fieldMinMax1 output:
    min(mag(U)) = 0 at location (0.510757 -0.0257 0.0005)
    max(mag(U)) = 0.13152 at location (0.452305 0.0119769 0.0005)

faceSource inletPressurePlane output:
    areaAverage(bla) of p = 0.213908

faceSource outletPressurePlane output:
    areaAverage(bla) of p = -5.87631e-05

Time = 24

smoothSolver:  Solving for Ux, Initial residual = 0.00622619, Final residual = 3.10351e-06, No Iterations 6
smoothSolver:  Solving for Uy, Initial residual = 0.00778569, Final residual = 2.42842e-06, No Iterations 6
GAMG:  Solving for p, Initial residual = 0.000616373, Final residual = 2.60156e-05, No Iterations 3
GAMG:  Solving for p, Initial residual = 0.000187564, Final residual = 8.46345e-06, No Iterations 5
GAMG:  Solving for p, Initial residual = 8.19236e-05, Final residual = 6.81106e-06, No Iterations 3
GAMG:  Solving for p, Initial residual = 3.77381e-05, Final residual = 1.91575e-06, No Iterations 3
time step continuity errors : sum local = 0.000103917, global = -1.61986e-06, cumulative = 9.30679e-06
ExecutionTime = 45.13 s  ClockTime = 45 s

fieldMinMax fieldMinMax1 output:
    min(mag(U)) = 0 at location (0.510757 -0.0257 0.0005)
    max(mag(U)) = 0.13138 at location (0.452305 0.0119769 0.0005)

faceSource inletPressurePlane output:
    areaAverage(bla) of p = 0.213863

faceSource outletPressurePlane output:
    areaAverage(bla) of p = 1.90853e-05

Time = 25

smoothSolver:  Solving for Ux, Initial residual = 0.00568451, Final residual = 2.16739e-06, No Iterations 6
smoothSolver:  Solving for Uy, Initial residual = 0.00786792, Final residual = 7.79218e-06, No Iterations 5
GAMG:  Solving for p, Initial residual = 0.000597043, Final residual = 2.73574e-05, No Iterations 3
GAMG:  Solving for p, Initial residual = 0.000179526, Final residual = 7.67814e-06, No Iterations 5
GAMG:  Solving for p, Initial residual = 6.54075e-05, Final residual = 3.60094e-06, No Iterations 3
GAMG:  Solving for p, Initial residual = 2.99354e-05, Final residual = 1.96716e-06, No Iterations 3
time step continuity errors : sum local = 0.000106819, global = -1.05703e-06, cumulative = 8.24976e-06
ExecutionTime = 46.63 s  ClockTime = 46 s

fieldMinMax fieldMinMax1 output:
    min(mag(U)) = 0 at location (0.510757 -0.0257 0.0005)
    max(mag(U)) = 0.131193 at location (0.452305 0.0119769 0.0005)

faceSource inletPressurePlane output:
    areaAverage(bla) of p = 0.213955

faceSource outletPressurePlane output:
    areaAverage(bla) of p = 5.76557e-05

Time = 26

smoothSolver:  Solving for Ux, Initial residual = 0.005824, Final residual = 2.77569e-06, No Iterations 6
smoothSolver:  Solving for Uy, Initial residual = 0.00717379, Final residual = 6.19032e-06, No Iterations 5
GAMG:  Solving for p, Initial residual = 0.000585183, Final residual = 2.34564e-05, No Iterations 3
GAMG:  Solving for p, Initial residual = 0.000176432, Final residual = 3.76871e-06, No Iterations 5
GAMG:  Solving for p, Initial residual = 5.97451e-05, Final residual = 3.69707e-06, No Iterations 3
GAMG:  Solving for p, Initial residual = 3.00969e-05, Final residual = 9.7352e-07, No Iterations 3
time step continuity errors : sum local = 5.27918e-05, global = -1.91386e-07, cumulative = 8.05837e-06
ExecutionTime = 48.19 s  ClockTime = 48 s

fieldMinMax fieldMinMax1 output:
    min(mag(U)) = 0 at location (0.510757 -0.0257 0.0005)
    max(mag(U)) = 0.130928 at location (0.452305 0.0119769 0.0005)

faceSource inletPressurePlane output:
    areaAverage(bla) of p = 0.213923

faceSource outletPressurePlane output:
    areaAverage(bla) of p = 3.73335e-05

Time = 27

smoothSolver:  Solving for Ux, Initial residual = 0.00541319, Final residual = 2.22861e-06, No Iterations 6
smoothSolver:  Solving for Uy, Initial residual = 0.00726893, Final residual = 6.91654e-06, No Iterations 5
GAMG:  Solving for p, Initial residual = 0.000553826, Final residual = 2.12025e-05, No Iterations 3
GAMG:  Solving for p, Initial residual = 0.000172035, Final residual = 8.35726e-06, No Iterations 5
GAMG:  Solving for p, Initial residual = 6.61388e-05, Final residual = 5.75594e-06, No Iterations 3
GAMG:  Solving for p, Initial residual = 3.22756e-05, Final residual = 1.45645e-06, No Iterations 3
time step continuity errors : sum local = 7.90608e-05, global = 6.79539e-08, cumulative = 8.12632e-06
ExecutionTime = 49.7 s  ClockTime = 50 s

fieldMinMax fieldMinMax1 output:
    min(mag(U)) = 0 at location (0.510757 -0.0257 0.0005)
    max(mag(U)) = 0.130657 at location (0.452305 0.0119769 0.0005)

faceSource inletPressurePlane output:
    areaAverage(bla) of p = 0.214041

faceSource outletPressurePlane output:
    areaAverage(bla) of p = -7.648e-06

Time = 28

smoothSolver:  Solving for Ux, Initial residual = 0.0050597, Final residual = 1.61877e-06, No Iterations 6
smoothSolver:  Solving for Uy, Initial residual = 0.00720747, Final residual = 6.50874e-06, No Iterations 5
GAMG:  Solving for p, Initial residual = 0.000541094, Final residual = 2.11354e-05, No Iterations 3
GAMG:  Solving for p, Initial residual = 0.000167309, Final residual = 5.82285e-06, No Iterations 5
GAMG:  Solving for p, Initial residual = 5.64792e-05, Final residual = 5.16362e-06, No Iterations 3
GAMG:  Solving for p, Initial residual = 2.82216e-05, Final residual = 1.83876e-06, No Iterations 3
time step continuity errors : sum local = 0.000100045, global = -1.11233e-07, cumulative = 8.01509e-06
ExecutionTime = 51.21 s  ClockTime = 51 s

fieldMinMax fieldMinMax1 output:
    min(mag(U)) = 0 at location (0.510757 -0.0257 0.0005)
    max(mag(U)) = 0.130487 at location (0.452305 0.0119769 0.0005)

faceSource inletPressurePlane output:
    areaAverage(bla) of p = 0.214245

faceSource outletPressurePlane output:
    areaAverage(bla) of p = -3.02419e-05

Time = 29

smoothSolver:  Solving for Ux, Initial residual = 0.00524527, Final residual = 1.96922e-06, No Iterations 6
smoothSolver:  Solving for Uy, Initial residual = 0.0070808, Final residual = 5.80098e-06, No Iterations 5
GAMG:  Solving for p, Initial residual = 0.000541131, Final residual = 1.92732e-05, No Iterations 3
GAMG:  Solving for p, Initial residual = 0.00016591, Final residual = 7.69455e-06, No Iterations 3
GAMG:  Solving for p, Initial residual = 5.32223e-05, Final residual = 6.42932e-06, No Iterations 3
GAMG:  Solving for p, Initial residual = 3.04884e-05, Final residual = 4.42569e-06, No Iterations 3
time step continuity errors : sum local = 0.00024054, global = 2.59382e-07, cumulative = 8.27447e-06
ExecutionTime = 52.65 s  ClockTime = 52 s

fieldMinMax fieldMinMax1 output:
    min(mag(U)) = 0 at location (0.510757 -0.0257 0.0005)
    max(mag(U)) = 0.130429 at location (0.452305 0.0119769 0.0005)

faceSource inletPressurePlane output:
    areaAverage(bla) of p = 0.214367

faceSource outletPressurePlane output:
    areaAverage(bla) of p = -1.74478e-05

Time = 30

smoothSolver:  Solving for Ux, Initial residual = 0.00485138, Final residual = 1.63781e-06, No Iterations 6
smoothSolver:  Solving for Uy, Initial residual = 0.00698635, Final residual = 6.08101e-06, No Iterations 5
GAMG:  Solving for p, Initial residual = 0.00050899, Final residual = 1.69548e-05, No Iterations 3
GAMG:  Solving for p, Initial residual = 0.00015797, Final residual = 5.94638e-06, No Iterations 5
GAMG:  Solving for p, Initial residual = 5.90506e-05, Final residual = 2.73949e-06, No Iterations 3
GAMG:  Solving for p, Initial residual = 2.8226e-05, Final residual = 1.42688e-06, No Iterations 3
time step continuity errors : sum local = 7.75021e-05, global = -1.40594e-06, cumulative = 6.86853e-06
ExecutionTime = 54.17 s  ClockTime = 54 s

fieldMinMax fieldMinMax1 output:
    min(mag(U)) = 0 at location (0.510757 -0.0257 0.0005)
    max(mag(U)) = 0.130442 at location (0.452305 0.0119769 0.0005)

faceSource inletPressurePlane output:
    areaAverage(bla) of p = 0.214321

faceSource outletPressurePlane output:
    areaAverage(bla) of p = 5.22742e-06

Time = 31

smoothSolver:  Solving for Ux, Initial residual = 0.00448777, Final residual = 4.34409e-06, No Iterations 5
smoothSolver:  Solving for Uy, Initial residual = 0.00664791, Final residual = 5.67564e-06, No Iterations 5
GAMG:  Solving for p, Initial residual = 0.000493865, Final residual = 1.73957e-05, No Iterations 3
GAMG:  Solving for p, Initial residual = 0.000157328, Final residual = 8.7456e-06, No Iterations 3
GAMG:  Solving for p, Initial residual = 5.28795e-05, Final residual = 7.83427e-06, No Iterations 3
GAMG:  Solving for p, Initial residual = 3.31929e-05, Final residual = 1.78791e-06, No Iterations 3
time step continuity errors : sum local = 9.70944e-05, global = -1.34548e-06, cumulative = 5.52305e-06
ExecutionTime = 55.6 s  ClockTime = 55 s

fieldMinMax fieldMinMax1 output:
    min(mag(U)) = 0 at location (0.510757 -0.0257 0.0005)
    max(mag(U)) = 0.130468 at location (0.452305 0.0119769 0.0005)

faceSource inletPressurePlane output:
    areaAverage(bla) of p = 0.214258

faceSource outletPressurePlane output:
    areaAverage(bla) of p = 1.73177e-05

Time = 32

smoothSolver:  Solving for Ux, Initial residual = 0.00467453, Final residual = 1.48846e-06, No Iterations 6
smoothSolver:  Solving for Uy, Initial residual = 0.00671782, Final residual = 5.36947e-06, No Iterations 5
GAMG:  Solving for p, Initial residual = 0.000500297, Final residual = 1.5596e-05, No Iterations 3
GAMG:  Solving for p, Initial residual = 0.000155007, Final residual = 5.88177e-06, No Iterations 3
GAMG:  Solving for p, Initial residual = 4.80269e-05, Final residual = 4.12897e-06, No Iterations 3
GAMG:  Solving for p, Initial residual = 2.6419e-05, Final residual = 1.6097e-06, No Iterations 3
time step continuity errors : sum local = 8.74919e-05, global = 2.74205e-07, cumulative = 5.79726e-06
ExecutionTime = 57.06 s  ClockTime = 57 s

fieldMinMax fieldMinMax1 output:
    min(mag(U)) = 0 at location (0.510757 -0.0257 0.0005)
    max(mag(U)) = 0.130456 at location (0.452305 0.0119769 0.0005)

faceSource inletPressurePlane output:
    areaAverage(bla) of p = 0.214304

faceSource outletPressurePlane output:
    areaAverage(bla) of p = 1.60871e-05

Time = 33

smoothSolver:  Solving for Ux, Initial residual = 0.00465508, Final residual = 1.43401e-06, No Iterations 6
smoothSolver:  Solving for Uy, Initial residual = 0.00673994, Final residual = 5.61904e-06, No Iterations 5
GAMG:  Solving for p, Initial residual = 0.000490957, Final residual = 1.47862e-05, No Iterations 3
GAMG:  Solving for p, Initial residual = 0.000151412, Final residual = 8.98267e-06, No Iterations 3
GAMG:  Solving for p, Initial residual = 5.20821e-05, Final residual = 4.70327e-06, No Iterations 3
GAMG:  Solving for p, Initial residual = 2.82647e-05, Final residual = 2.53301e-06, No Iterations 3
time step continuity errors : sum local = 0.000137593, global = 1.09101e-06, cumulative = 6.88827e-06
ExecutionTime = 58.5 s  ClockTime = 58 s

fieldMinMax fieldMinMax1 output:
    min(mag(U)) = 0 at location (0.510757 -0.0257 0.0005)
    max(mag(U)) = 0.130401 at location (0.452305 0.0119769 0.0005)

faceSource inletPressurePlane output:
    areaAverage(bla) of p = 0.214313

faceSource outletPressurePlane output:
    areaAverage(bla) of p = 4.88393e-06

Time = 34

smoothSolver:  Solving for Ux, Initial residual = 0.00439287, Final residual = 4.04814e-06, No Iterations 5
smoothSolver:  Solving for Uy, Initial residual = 0.0065154, Final residual = 5.27354e-06, No Iterations 5
GAMG:  Solving for p, Initial residual = 0.00048083, Final residual = 1.51859e-05, No Iterations 3
GAMG:  Solving for p, Initial residual = 0.0001514, Final residual = 7.02798e-06, No Iterations 3
GAMG:  Solving for p, Initial residual = 4.84514e-05, Final residual = 3.53683e-06, No Iterations 3
GAMG:  Solving for p, Initial residual = 2.62109e-05, Final residual = 3.95699e-06, No Iterations 3
time step continuity errors : sum local = 0.00021463, global = 1.18036e-06, cumulative = 8.06862e-06
ExecutionTime = 59.95 s  ClockTime = 60 s

fieldMinMax fieldMinMax1 output:
    min(mag(U)) = 0 at location (0.510757 -0.0257 0.0005)
    max(mag(U)) = 0.130364 at location (0.452305 0.0119769 0.0005)

faceSource inletPressurePlane output:
    areaAverage(bla) of p = 0.214193

faceSource outletPressurePlane output:
    areaAverage(bla) of p = -5.08955e-06

Time = 35

smoothSolver:  Solving for Ux, Initial residual = 0.00438919, Final residual = 4.15727e-06, No Iterations 5
smoothSolver:  Solving for Uy, Initial residual = 0.00648134, Final residual = 5.14479e-06, No Iterations 5
GAMG:  Solving for p, Initial residual = 0.0004752, Final residual = 1.35993e-05, No Iterations 3
GAMG:  Solving for p, Initial residual = 0.000151025, Final residual = 5.51664e-06, No Iterations 3
GAMG:  Solving for p, Initial residual = 4.87918e-05, Final residual = 3.71085e-06, No Iterations 3
GAMG:  Solving for p, Initial residual = 2.86167e-05, Final residual = 1.66684e-06, No Iterations 3
time step continuity errors : sum local = 9.05738e-05, global = 4.19535e-07, cumulative = 8.48816e-06
ExecutionTime = 61.39 s  ClockTime = 61 s

fieldMinMax fieldMinMax1 output:
    min(mag(U)) = 0 at location (0.510757 -0.0257 0.0005)
    max(mag(U)) = 0.130401 at location (0.452305 0.0119769 0.0005)

faceSource inletPressurePlane output:
    areaAverage(bla) of p = 0.214279

faceSource outletPressurePlane output:
    areaAverage(bla) of p = -7.63227e-06

Time = 36

smoothSolver:  Solving for Ux, Initial residual = 0.00444109, Final residual = 4.18969e-06, No Iterations 5
smoothSolver:  Solving for Uy, Initial residual = 0.00642613, Final residual = 5.03355e-06, No Iterations 5
GAMG:  Solving for p, Initial residual = 0.000471815, Final residual = 1.39594e-05, No Iterations 3
GAMG:  Solving for p, Initial residual = 0.000152006, Final residual = 6.02517e-06, No Iterations 3
GAMG:  Solving for p, Initial residual = 5.27895e-05, Final residual = 3.48553e-06, No Iterations 3
GAMG:  Solving for p, Initial residual = 3.08335e-05, Final residual = 1.21597e-06, No Iterations 3
time step continuity errors : sum local = 6.60978e-05, global = -5.52338e-07, cumulative = 7.93582e-06
ExecutionTime = 62.81 s  ClockTime = 63 s

fieldMinMax fieldMinMax1 output:
    min(mag(U)) = 0 at location (0.510757 -0.0257 0.0005)
    max(mag(U)) = 0.130479 at location (0.452305 0.0119769 0.0005)

faceSource inletPressurePlane output:
    areaAverage(bla) of p = 0.214372

faceSource outletPressurePlane output:
    areaAverage(bla) of p = -3.84457e-06

Time = 37

smoothSolver:  Solving for Ux, Initial residual = 0.00434067, Final residual = 3.96856e-06, No Iterations 5
smoothSolver:  Solving for Uy, Initial residual = 0.00655083, Final residual = 5.23459e-06, No Iterations 5
GAMG:  Solving for p, Initial residual = 0.000474829, Final residual = 1.37421e-05, No Iterations 3
GAMG:  Solving for p, Initial residual = 0.000154665, Final residual = 5.62246e-06, No Iterations 3
GAMG:  Solving for p, Initial residual = 5.06931e-05, Final residual = 3.70089e-06, No Iterations 3
GAMG:  Solving for p, Initial residual = 2.92712e-05, Final residual = 1.95836e-06, No Iterations 3
time step continuity errors : sum local = 0.000106505, global = -1.43391e-06, cumulative = 6.50191e-06
ExecutionTime = 64.25 s  ClockTime = 64 s

fieldMinMax fieldMinMax1 output:
    min(mag(U)) = 0 at location (0.510757 -0.0257 0.0005)
    max(mag(U)) = 0.130534 at location (0.452305 0.0119769 0.0005)

faceSource inletPressurePlane output:
    areaAverage(bla) of p = 0.214466

faceSource outletPressurePlane output:
    areaAverage(bla) of p = 1.09464e-06

Time = 38

smoothSolver:  Solving for Ux, Initial residual = 0.00428293, Final residual = 3.73013e-06, No Iterations 5
smoothSolver:  Solving for Uy, Initial residual = 0.00645212, Final residual = 4.9714e-06, No Iterations 5
GAMG:  Solving for p, Initial residual = 0.000462134, Final residual = 1.26719e-05, No Iterations 3
GAMG:  Solving for p, Initial residual = 0.000146054, Final residual = 4.95089e-06, No Iterations 3
GAMG:  Solving for p, Initial residual = 4.43341e-05, Final residual = 3.83516e-06, No Iterations 3
GAMG:  Solving for p, Initial residual = 2.53188e-05, Final residual = 2.78392e-06, No Iterations 3
time step continuity errors : sum local = 0.000151236, global = -5.86396e-07, cumulative = 5.91551e-06
ExecutionTime = 65.7 s  ClockTime = 66 s

fieldMinMax fieldMinMax1 output:
    min(mag(U)) = 0 at location (0.510757 -0.0257 0.0005)
    max(mag(U)) = 0.130547 at location (0.452305 0.0119769 0.0005)

faceSource inletPressurePlane output:
    areaAverage(bla) of p = 0.214422

faceSource outletPressurePlane output:
    areaAverage(bla) of p = 7.18208e-06

Time = 39

smoothSolver:  Solving for Ux, Initial residual = 0.00438486, Final residual = 3.91123e-06, No Iterations 5
smoothSolver:  Solving for Uy, Initial residual = 0.00649273, Final residual = 5.03224e-06, No Iterations 5
GAMG:  Solving for p, Initial residual = 0.000468694, Final residual = 1.28848e-05, No Iterations 3
GAMG:  Solving for p, Initial residual = 0.000146684, Final residual = 4.06629e-06, No Iterations 3
GAMG:  Solving for p, Initial residual = 4.61903e-05, Final residual = 2.12004e-06, No Iterations 3
GAMG:  Solving for p, Initial residual = 2.57893e-05, Final residual = 9.52552e-07, No Iterations 3
time step continuity errors : sum local = 5.17885e-05, global = -3.82066e-07, cumulative = 5.53345e-06
ExecutionTime = 67.13 s  ClockTime = 67 s

fieldMinMax fieldMinMax1 output:
    min(mag(U)) = 0 at location (0.510757 -0.0257 0.0005)
    max(mag(U)) = 0.13054 at location (0.452305 0.0119769 0.0005)

faceSource inletPressurePlane output:
    areaAverage(bla) of p = 0.214472

faceSource outletPressurePlane output:
    areaAverage(bla) of p = 7.79508e-06

Time = 40

smoothSolver:  Solving for Ux, Initial residual = 0.00431608, Final residual = 3.79378e-06, No Iterations 5
smoothSolver:  Solving for Uy, Initial residual = 0.00634985, Final residual = 4.8389e-06, No Iterations 5
GAMG:  Solving for p, Initial residual = 0.000464094, Final residual = 1.23078e-05, No Iterations 3
GAMG:  Solving for p, Initial residual = 0.000152098, Final residual = 3.9845e-06, No Iterations 3
GAMG:  Solving for p, Initial residual = 4.73508e-05, Final residual = 2.80476e-06, No Iterations 3
GAMG:  Solving for p, Initial residual = 2.7026e-05, Final residual = 1.27917e-06, No Iterations 3
time step continuity errors : sum local = 6.94422e-05, global = 5.55539e-07, cumulative = 6.08899e-06
ExecutionTime = 68.56 s  ClockTime = 68 s

fieldMinMax fieldMinMax1 output:
    min(mag(U)) = 0 at location (0.510757 -0.0257 0.0005)
    max(mag(U)) = 0.130558 at location (0.452305 0.0119769 0.0005)

faceSource inletPressurePlane output:
    areaAverage(bla) of p = 0.214379

faceSource outletPressurePlane output:
    areaAverage(bla) of p = 5.45445e-06

Time = 41

smoothSolver:  Solving for Ux, Initial residual = 0.00419204, Final residual = 3.68027e-06, No Iterations 5
smoothSolver:  Solving for Uy, Initial residual = 0.0062435, Final residual = 4.8153e-06, No Iterations 5
GAMG:  Solving for p, Initial residual = 0.000463861, Final residual = 1.329e-05, No Iterations 3
GAMG:  Solving for p, Initial residual = 0.000150552, Final residual = 5.09701e-06, No Iterations 3
GAMG:  Solving for p, Initial residual = 4.93863e-05, Final residual = 3.94402e-06, No Iterations 3
GAMG:  Solving for p, Initial residual = 2.88652e-05, Final residual = 1.60543e-06, No Iterations 3
time step continuity errors : sum local = 8.72098e-05, global = 6.25699e-07, cumulative = 6.71468e-06
ExecutionTime = 70.01 s  ClockTime = 70 s

fieldMinMax fieldMinMax1 output:
    min(mag(U)) = 0 at location (0.510757 -0.0257 0.0005)
    max(mag(U)) = 0.130642 at location (0.452305 0.0119769 0.0005)

faceSource inletPressurePlane output:
    areaAverage(bla) of p = 0.214384

faceSource outletPressurePlane output:
    areaAverage(bla) of p = 9.76074e-07

Time = 42

smoothSolver:  Solving for Ux, Initial residual = 0.0042934, Final residual = 3.78062e-06, No Iterations 5
smoothSolver:  Solving for Uy, Initial residual = 0.00638027, Final residual = 5.04878e-06, No Iterations 5
GAMG:  Solving for p, Initial residual = 0.000466101, Final residual = 1.3207e-05, No Iterations 3
GAMG:  Solving for p, Initial residual = 0.000150308, Final residual = 4.24542e-06, No Iterations 3
GAMG:  Solving for p, Initial residual = 4.8674e-05, Final residual = 2.50623e-06, No Iterations 3
GAMG:  Solving for p, Initial residual = 2.82166e-05, Final residual = 1.02445e-06, No Iterations 3
time step continuity errors : sum local = 5.55937e-05, global = 7.26605e-07, cumulative = 7.44129e-06
ExecutionTime = 71.46 s  ClockTime = 71 s

fieldMinMax fieldMinMax1 output:
    min(mag(U)) = 0 at location (0.510757 -0.0257 0.0005)
    max(mag(U)) = 0.130756 at location (0.452305 0.0119769 0.0005)

faceSource inletPressurePlane output:
    areaAverage(bla) of p = 0.214296

faceSource outletPressurePlane output:
    areaAverage(bla) of p = -1.30734e-06

Time = 43

smoothSolver:  Solving for Ux, Initial residual = 0.00420542, Final residual = 3.46432e-06, No Iterations 5
smoothSolver:  Solving for Uy, Initial residual = 0.00622103, Final residual = 4.69065e-06, No Iterations 5
GAMG:  Solving for p, Initial residual = 0.00045601, Final residual = 1.15636e-05, No Iterations 3
GAMG:  Solving for p, Initial residual = 0.00014369, Final residual = 3.44695e-06, No Iterations 3
GAMG:  Solving for p, Initial residual = 4.29091e-05, Final residual = 2.16096e-06, No Iterations 3
GAMG:  Solving for p, Initial residual = 2.44714e-05, Final residual = 9.33417e-07, No Iterations 3
time step continuity errors : sum local = 5.06979e-05, global = 1.91241e-07, cumulative = 7.63253e-06
ExecutionTime = 72.89 s  ClockTime = 73 s

fieldMinMax fieldMinMax1 output:
    min(mag(U)) = 0 at location (0.510757 -0.0257 0.0005)
    max(mag(U)) = 0.130813 at location (0.452305 0.0119769 0.0005)

faceSource inletPressurePlane output:
    areaAverage(bla) of p = 0.214318

faceSource outletPressurePlane output:
    areaAverage(bla) of p = -1.70661e-06

Time = 44

smoothSolver:  Solving for Ux, Initial residual = 0.0042332, Final residual = 3.76342e-06, No Iterations 5
smoothSolver:  Solving for Uy, Initial residual = 0.00618616, Final residual = 5.00119e-06, No Iterations 5
GAMG:  Solving for p, Initial residual = 0.000454943, Final residual = 1.22983e-05, No Iterations 3
GAMG:  Solving for p, Initial residual = 0.000146094, Final residual = 3.86051e-06, No Iterations 3
GAMG:  Solving for p, Initial residual = 4.30388e-05, Final residual = 2.45317e-06, No Iterations 3
GAMG:  Solving for p, Initial residual = 2.36756e-05, Final residual = 1.26033e-06, No Iterations 3
time step continuity errors : sum local = 6.83864e-05, global = -2.15466e-07, cumulative = 7.41706e-06
ExecutionTime = 74.35 s  ClockTime = 74 s

fieldMinMax fieldMinMax1 output:
    min(mag(U)) = 0 at location (0.510757 -0.0257 0.0005)
    max(mag(U)) = 0.130802 at location (0.452305 0.0119769 0.0005)

faceSource inletPressurePlane output:
    areaAverage(bla) of p = 0.214226

faceSource outletPressurePlane output:
    areaAverage(bla) of p = -2.40229e-07

Time = 45

smoothSolver:  Solving for Ux, Initial residual = 0.00426199, Final residual = 3.74705e-06, No Iterations 5
smoothSolver:  Solving for Uy, Initial residual = 0.0063166, Final residual = 4.98407e-06, No Iterations 5
GAMG:  Solving for p, Initial residual = 0.000454583, Final residual = 1.28257e-05, No Iterations 3
GAMG:  Solving for p, Initial residual = 0.000147555, Final residual = 4.27367e-06, No Iterations 3
GAMG:  Solving for p, Initial residual = 4.87114e-05, Final residual = 2.60783e-06, No Iterations 3
GAMG:  Solving for p, Initial residual = 2.72154e-05, Final residual = 1.02971e-06, No Iterations 3
time step continuity errors : sum local = 5.59636e-05, global = -5.1204e-07, cumulative = 6.90502e-06
ExecutionTime = 75.79 s  ClockTime = 76 s

fieldMinMax fieldMinMax1 output:
    min(mag(U)) = 0 at location (0.510757 -0.0257 0.0005)
    max(mag(U)) = 0.130754 at location (0.452305 0.0119769 0.0005)

faceSource inletPressurePlane output:
    areaAverage(bla) of p = 0.214326

faceSource outletPressurePlane output:
    areaAverage(bla) of p = 1.74075e-06

Time = 46

smoothSolver:  Solving for Ux, Initial residual = 0.00417383, Final residual = 3.45997e-06, No Iterations 5
smoothSolver:  Solving for Uy, Initial residual = 0.00612151, Final residual = 4.51066e-06, No Iterations 5
GAMG:  Solving for p, Initial residual = 0.000447829, Final residual = 1.20843e-05, No Iterations 3
GAMG:  Solving for p, Initial residual = 0.000143106, Final residual = 3.55131e-06, No Iterations 3
GAMG:  Solving for p, Initial residual = 4.36823e-05, Final residual = 1.99557e-06, No Iterations 3
GAMG:  Solving for p, Initial residual = 2.35062e-05, Final residual = 1.48279e-06, No Iterations 3
time step continuity errors : sum local = 8.06493e-05, global = -3.04585e-07, cumulative = 6.60044e-06
ExecutionTime = 77.22 s  ClockTime = 77 s

fieldMinMax fieldMinMax1 output:
    min(mag(U)) = 0 at location (0.510757 -0.0257 0.0005)
    max(mag(U)) = 0.130677 at location (0.452305 0.0119769 0.0005)

faceSource inletPressurePlane output:
    areaAverage(bla) of p = 0.214468

faceSource outletPressurePlane output:
    areaAverage(bla) of p = 3.578e-06

Time = 47

smoothSolver:  Solving for Ux, Initial residual = 0.00427449, Final residual = 3.71034e-06, No Iterations 5
smoothSolver:  Solving for Uy, Initial residual = 0.00627018, Final residual = 4.92826e-06, No Iterations 5
GAMG:  Solving for p, Initial residual = 0.00045157, Final residual = 1.20106e-05, No Iterations 3
GAMG:  Solving for p, Initial residual = 0.000147084, Final residual = 3.4045e-06, No Iterations 3
GAMG:  Solving for p, Initial residual = 4.29491e-05, Final residual = 1.80583e-06, No Iterations 3
GAMG:  Solving for p, Initial residual = 2.28388e-05, Final residual = 1.0446e-06, No Iterations 3
time step continuity errors : sum local = 5.66829e-05, global = -1.49065e-07, cumulative = 6.45137e-06
ExecutionTime = 78.65 s  ClockTime = 78 s

fieldMinMax fieldMinMax1 output:
    min(mag(U)) = 0 at location (0.510757 -0.0257 0.0005)
    max(mag(U)) = 0.1306 at location (0.452305 0.0119769 0.0005)

faceSource inletPressurePlane output:
    areaAverage(bla) of p = 0.214346

faceSource outletPressurePlane output:
    areaAverage(bla) of p = 3.97793e-06

Time = 48

smoothSolver:  Solving for Ux, Initial residual = 0.00420118, Final residual = 3.58229e-06, No Iterations 5
smoothSolver:  Solving for Uy, Initial residual = 0.00618572, Final residual = 4.79602e-06, No Iterations 5
GAMG:  Solving for p, Initial residual = 0.000445992, Final residual = 1.25825e-05, No Iterations 3
GAMG:  Solving for p, Initial residual = 0.000146218, Final residual = 3.69815e-06, No Iterations 3
GAMG:  Solving for p, Initial residual = 4.56401e-05, Final residual = 1.93033e-06, No Iterations 3
GAMG:  Solving for p, Initial residual = 2.47462e-05, Final residual = 1.92993e-06, No Iterations 3
time step continuity errors : sum local = 0.000104723, global = -2.95843e-08, cumulative = 6.42179e-06
ExecutionTime = 80.1 s  ClockTime = 80 s

fieldMinMax fieldMinMax1 output:
    min(mag(U)) = 0 at location (0.510757 -0.0257 0.0005)
    max(mag(U)) = 0.130541 at location (0.452305 0.0119769 0.0005)

faceSource inletPressurePlane output:
    areaAverage(bla) of p = 0.214291

faceSource outletPressurePlane output:
    areaAverage(bla) of p = 2.83392e-06

Time = 49

smoothSolver:  Solving for Ux, Initial residual = 0.00430904, Final residual = 3.65236e-06, No Iterations 5
smoothSolver:  Solving for Uy, Initial residual = 0.00635577, Final residual = 4.87227e-06, No Iterations 5
GAMG:  Solving for p, Initial residual = 0.000455076, Final residual = 1.2661e-05, No Iterations 3
GAMG:  Solving for p, Initial residual = 0.000143986, Final residual = 4.23e-06, No Iterations 3
GAMG:  Solving for p, Initial residual = 4.49686e-05, Final residual = 2.01471e-06, No Iterations 3
GAMG:  Solving for p, Initial residual = 2.54495e-05, Final residual = 8.62597e-07, No Iterations 3
time step continuity errors : sum local = 4.68689e-05, global = 2.30909e-07, cumulative = 6.6527e-06
ExecutionTime = 81.52 s  ClockTime = 81 s

fieldMinMax fieldMinMax1 output:
    min(mag(U)) = 0 at location (0.510757 -0.0257 0.0005)
    max(mag(U)) = 0.130492 at location (0.452305 0.0119769 0.0005)

faceSource inletPressurePlane output:
    areaAverage(bla) of p = 0.214349

faceSource outletPressurePlane output:
    areaAverage(bla) of p = 1.95754e-06

Time = 50

smoothSolver:  Solving for Ux, Initial residual = 0.00424964, Final residual = 3.61667e-06, No Iterations 5
smoothSolver:  Solving for Uy, Initial residual = 0.00630523, Final residual = 4.96159e-06, No Iterations 5
GAMG:  Solving for p, Initial residual = 0.000450433, Final residual = 1.22444e-05, No Iterations 3
GAMG:  Solving for p, Initial residual = 0.000148491, Final residual = 3.35879e-06, No Iterations 3
GAMG:  Solving for p, Initial residual = 4.65433e-05, Final residual = 2.72923e-06, No Iterations 3
GAMG:  Solving for p, Initial residual = 2.7766e-05, Final residual = 2.07928e-06, No Iterations 3
time step continuity errors : sum local = 0.00011312, global = -1.0667e-07, cumulative = 6.54603e-06
ExecutionTime = 82.98 s  ClockTime = 83 s

fieldMinMax fieldMinMax1 output:
    min(mag(U)) = 0 at location (0.510757 -0.0257 0.0005)
    max(mag(U)) = 0.130455 at location (0.452305 0.0119769 0.0005)

faceSource inletPressurePlane output:
    areaAverage(bla) of p = 0.214473

faceSource outletPressurePlane output:
    areaAverage(bla) of p = 8.47092e-07

Time = 51

smoothSolver:  Solving for Ux, Initial residual = 0.00421424, Final residual = 3.64835e-06, No Iterations 5
smoothSolver:  Solving for Uy, Initial residual = 0.00616101, Final residual = 4.69697e-06, No Iterations 5
GAMG:  Solving for p, Initial residual = 0.000436918, Final residual = 1.15972e-05, No Iterations 3
GAMG:  Solving for p, Initial residual = 0.00014173, Final residual = 3.46954e-06, No Iterations 3
GAMG:  Solving for p, Initial residual = 4.34811e-05, Final residual = 1.67645e-06, No Iterations 3
GAMG:  Solving for p, Initial residual = 2.33261e-05, Final residual = 1.10188e-06, No Iterations 3
time step continuity errors : sum local = 5.9857e-05, global = -4.81571e-08, cumulative = 6.49787e-06
ExecutionTime = 84.42 s  ClockTime = 84 s

fieldMinMax fieldMinMax1 output:
    min(mag(U)) = 0 at location (0.510757 -0.0257 0.0005)
    max(mag(U)) = 0.130426 at location (0.452305 0.0119769 0.0005)

faceSource inletPressurePlane output:
    areaAverage(bla) of p = 0.214416

faceSource outletPressurePlane output:
    areaAverage(bla) of p = 9.57219e-07

Time = 52

smoothSolver:  Solving for Ux, Initial residual = 0.00410749, Final residual = 3.49955e-06, No Iterations 5
smoothSolver:  Solving for Uy, Initial residual = 0.0061419, Final residual = 4.72406e-06, No Iterations 5
GAMG:  Solving for p, Initial residual = 0.000439503, Final residual = 1.18537e-05, No Iterations 3
GAMG:  Solving for p, Initial residual = 0.00014134, Final residual = 3.37849e-06, No Iterations 3
GAMG:  Solving for p, Initial residual = 4.28232e-05, Final residual = 2.65518e-06, No Iterations 3
GAMG:  Solving for p, Initial residual = 2.46925e-05, Final residual = 1.52334e-06, No Iterations 3
time step continuity errors : sum local = 8.27845e-05, global = -2.20592e-10, cumulative = 6.49765e-06
ExecutionTime = 85.85 s  ClockTime = 86 s

fieldMinMax fieldMinMax1 output:
    min(mag(U)) = 0 at location (0.510757 -0.0257 0.0005)
    max(mag(U)) = 0.130416 at location (0.452305 0.0119769 0.0005)

faceSource inletPressurePlane output:
    areaAverage(bla) of p = 0.214388

faceSource outletPressurePlane output:
    areaAverage(bla) of p = 1.94989e-06

Time = 53

smoothSolver:  Solving for Ux, Initial residual = 0.00407709, Final residual = 3.56832e-06, No Iterations 5
smoothSolver:  Solving for Uy, Initial residual = 0.00609825, Final residual = 4.75881e-06, No Iterations 5
GAMG:  Solving for p, Initial residual = 0.000444432, Final residual = 1.17509e-05, No Iterations 3
GAMG:  Solving for p, Initial residual = 0.000143785, Final residual = 3.51306e-06, No Iterations 3
GAMG:  Solving for p, Initial residual = 4.46951e-05, Final residual = 1.73189e-06, No Iterations 3
GAMG:  Solving for p, Initial residual = 2.42782e-05, Final residual = 1.28233e-06, No Iterations 3
time step continuity errors : sum local = 6.96263e-05, global = -6.4985e-08, cumulative = 6.43267e-06
ExecutionTime = 87.31 s  ClockTime = 87 s

fieldMinMax fieldMinMax1 output:
    min(mag(U)) = 0 at location (0.510757 -0.0257 0.0005)
    max(mag(U)) = 0.130444 at location (0.452305 0.0119769 0.0005)

faceSource inletPressurePlane output:
    areaAverage(bla) of p = 0.214286

faceSource outletPressurePlane output:
    areaAverage(bla) of p = 2.50855e-06

Time = 54

smoothSolver:  Solving for Ux, Initial residual = 0.0040657, Final residual = 3.63258e-06, No Iterations 5
smoothSolver:  Solving for Uy, Initial residual = 0.00612029, Final residual = 4.96147e-06, No Iterations 5
GAMG:  Solving for p, Initial residual = 0.000427169, Final residual = 1.14695e-05, No Iterations 3
GAMG:  Solving for p, Initial residual = 0.000137596, Final residual = 3.54487e-06, No Iterations 3
GAMG:  Solving for p, Initial residual = 4.1703e-05, Final residual = 1.67201e-06, No Iterations 3
GAMG:  Solving for p, Initial residual = 2.2469e-05, Final residual = 8.85243e-07, No Iterations 3
time step continuity errors : sum local = 4.8114e-05, global = -2.98055e-08, cumulative = 6.40286e-06
ExecutionTime = 88.74 s  ClockTime = 89 s

fieldMinMax fieldMinMax1 output:
    min(mag(U)) = 0 at location (0.510757 -0.0257 0.0005)
    max(mag(U)) = 0.130505 at location (0.452305 0.0119769 0.0005)

faceSource inletPressurePlane output:
    areaAverage(bla) of p = 0.214331

faceSource outletPressurePlane output:
    areaAverage(bla) of p = 2.57714e-06

Time = 55

smoothSolver:  Solving for Ux, Initial residual = 0.00400726, Final residual = 3.39907e-06, No Iterations 5
smoothSolver:  Solving for Uy, Initial residual = 0.00603514, Final residual = 4.86659e-06, No Iterations 5
GAMG:  Solving for p, Initial residual = 0.00042914, Final residual = 1.16957e-05, No Iterations 3
GAMG:  Solving for p, Initial residual = 0.000140303, Final residual = 3.50581e-06, No Iterations 3
GAMG:  Solving for p, Initial residual = 4.42589e-05, Final residual = 1.54085e-06, No Iterations 3
GAMG:  Solving for p, Initial residual = 2.35977e-05, Final residual = 7.82708e-07, No Iterations 3
time step continuity errors : sum local = 4.25115e-05, global = 6.28319e-08, cumulative = 6.46569e-06
ExecutionTime = 90.15 s  ClockTime = 90 s

fieldMinMax fieldMinMax1 output:
    min(mag(U)) = 0 at location (0.510757 -0.0257 0.0005)
    max(mag(U)) = 0.130561 at location (0.452305 0.0119769 0.0005)

faceSource inletPressurePlane output:
    areaAverage(bla) of p = 0.2143

faceSource outletPressurePlane output:
    areaAverage(bla) of p = 2.50913e-06

Time = 56

smoothSolver:  Solving for Ux, Initial residual = 0.0040692, Final residual = 3.5528e-06, No Iterations 5
smoothSolver:  Solving for Uy, Initial residual = 0.00598446, Final residual = 4.68116e-06, No Iterations 5
GAMG:  Solving for p, Initial residual = 0.00042582, Final residual = 1.15988e-05, No Iterations 3
GAMG:  Solving for p, Initial residual = 0.000141781, Final residual = 3.26763e-06, No Iterations 3
GAMG:  Solving for p, Initial residual = 4.29921e-05, Final residual = 1.67267e-06, No Iterations 3
GAMG:  Solving for p, Initial residual = 2.44e-05, Final residual = 9.58951e-07, No Iterations 3
time step continuity errors : sum local = 5.21186e-05, global = 7.05713e-08, cumulative = 6.53626e-06
ExecutionTime = 91.58 s  ClockTime = 91 s

fieldMinMax fieldMinMax1 output:
    min(mag(U)) = 0 at location (0.510757 -0.0257 0.0005)
    max(mag(U)) = 0.1306 at location (0.452305 0.0119769 0.0005)

faceSource inletPressurePlane output:
    areaAverage(bla) of p = 0.214353

faceSource outletPressurePlane output:
    areaAverage(bla) of p = 2.24035e-06

Time = 57

smoothSolver:  Solving for Ux, Initial residual = 0.00395239, Final residual = 3.46508e-06, No Iterations 5
smoothSolver:  Solving for Uy, Initial residual = 0.00589873, Final residual = 4.7485e-06, No Iterations 5
GAMG:  Solving for p, Initial residual = 0.000426605, Final residual = 1.1216e-05, No Iterations 3
GAMG:  Solving for p, Initial residual = 0.000139491, Final residual = 3.30425e-06, No Iterations 3
GAMG:  Solving for p, Initial residual = 4.22712e-05, Final residual = 1.81367e-06, No Iterations 3
GAMG:  Solving for p, Initial residual = 2.29627e-05, Final residual = 1.67002e-06, No Iterations 3
time step continuity errors : sum local = 9.0674e-05, global = 4.41506e-08, cumulative = 6.58041e-06
ExecutionTime = 92.99 s  ClockTime = 93 s

fieldMinMax fieldMinMax1 output:
    min(mag(U)) = 0 at location (0.510757 -0.0257 0.0005)
    max(mag(U)) = 0.130632 at location (0.452305 0.0119769 0.0005)

faceSource inletPressurePlane output:
    areaAverage(bla) of p = 0.214334

faceSource outletPressurePlane output:
    areaAverage(bla) of p = 1.86979e-06

Time = 58

smoothSolver:  Solving for Ux, Initial residual = 0.00403818, Final residual = 3.57599e-06, No Iterations 5
smoothSolver:  Solving for Uy, Initial residual = 0.0060562, Final residual = 4.69651e-06, No Iterations 5
GAMG:  Solving for p, Initial residual = 0.000430276, Final residual = 1.17412e-05, No Iterations 3
GAMG:  Solving for p, Initial residual = 0.000139328, Final residual = 3.46586e-06, No Iterations 3
GAMG:  Solving for p, Initial residual = 4.1698e-05, Final residual = 1.97555e-06, No Iterations 3
GAMG:  Solving for p, Initial residual = 2.29401e-05, Final residual = 1.1385e-06, No Iterations 3
time step continuity errors : sum local = 6.18626e-05, global = 2.94219e-08, cumulative = 6.60984e-06
ExecutionTime = 94.42 s  ClockTime = 94 s

fieldMinMax fieldMinMax1 output:
    min(mag(U)) = 0 at location (0.510757 -0.0257 0.0005)
    max(mag(U)) = 0.130659 at location (0.452305 0.0119769 0.0005)

faceSource inletPressurePlane output:
    areaAverage(bla) of p = 0.214332

faceSource outletPressurePlane output:
    areaAverage(bla) of p = 1.71336e-06

Time = 59

smoothSolver:  Solving for Ux, Initial residual = 0.00413352, Final residual = 3.46512e-06, No Iterations 5
smoothSolver:  Solving for Uy, Initial residual = 0.00621145, Final residual = 4.77048e-06, No Iterations 5
GAMG:  Solving for p, Initial residual = 0.00043874, Final residual = 1.19218e-05, No Iterations 3
GAMG:  Solving for p, Initial residual = 0.000141663, Final residual = 3.6843e-06, No Iterations 3
GAMG:  Solving for p, Initial residual = 4.27479e-05, Final residual = 1.6211e-06, No Iterations 3
GAMG:  Solving for p, Initial residual = 2.20921e-05, Final residual = 1.05808e-06, No Iterations 3
time step continuity errors : sum local = 5.74306e-05, global = 1.36771e-08, cumulative = 6.62351e-06
ExecutionTime = 95.84 s  ClockTime = 96 s

fieldMinMax fieldMinMax1 output:
    min(mag(U)) = 0 at location (0.510757 -0.0257 0.0005)
    max(mag(U)) = 0.130679 at location (0.452305 0.0119769 0.0005)

faceSource inletPressurePlane output:
    areaAverage(bla) of p = 0.214248

faceSource outletPressurePlane output:
    areaAverage(bla) of p = 1.70105e-06

Time = 60

smoothSolver:  Solving for Ux, Initial residual = 0.00413802, Final residual = 3.63892e-06, No Iterations 5
smoothSolver:  Solving for Uy, Initial residual = 0.00613953, Final residual = 4.83107e-06, No Iterations 5
GAMG:  Solving for p, Initial residual = 0.000431105, Final residual = 1.1339e-05, No Iterations 3
GAMG:  Solving for p, Initial residual = 0.000139458, Final residual = 2.98099e-06, No Iterations 3
GAMG:  Solving for p, Initial residual = 4.37544e-05, Final residual = 1.39924e-06, No Iterations 3
GAMG:  Solving for p, Initial residual = 2.40744e-05, Final residual = 7.21498e-07, No Iterations 3
time step continuity errors : sum local = 3.92131e-05, global = -2.09107e-08, cumulative = 6.6026e-06
ExecutionTime = 97.26 s  ClockTime = 97 s

fieldMinMax fieldMinMax1 output:
    min(mag(U)) = 0 at location (0.510757 -0.0257 0.0005)
    max(mag(U)) = 0.130685 at location (0.452305 0.0119769 0.0005)

faceSource inletPressurePlane output:
    areaAverage(bla) of p = 0.214319

faceSource outletPressurePlane output:
    areaAverage(bla) of p = 1.82651e-06

Time = 61

smoothSolver:  Solving for Ux, Initial residual = 0.00414927, Final residual = 3.48274e-06, No Iterations 5
smoothSolver:  Solving for Uy, Initial residual = 0.00624435, Final residual = 4.92261e-06, No Iterations 5
GAMG:  Solving for p, Initial residual = 0.000443246, Final residual = 1.21187e-05, No Iterations 3
GAMG:  Solving for p, Initial residual = 0.000142217, Final residual = 3.69549e-06, No Iterations 3
GAMG:  Solving for p, Initial residual = 4.60947e-05, Final residual = 1.69177e-06, No Iterations 3
GAMG:  Solving for p, Initial residual = 2.43872e-05, Final residual = 1.05886e-06, No Iterations 3
time step continuity errors : sum local = 5.74768e-05, global = -1.65137e-08, cumulative = 6.58609e-06
ExecutionTime = 98.68 s  ClockTime = 99 s

fieldMinMax fieldMinMax1 output:
    min(mag(U)) = 0 at location (0.510757 -0.0257 0.0005)
    max(mag(U)) = 0.130683 at location (0.452305 0.0119769 0.0005)

faceSource inletPressurePlane output:
    areaAverage(bla) of p = 0.214275

faceSource outletPressurePlane output:
    areaAverage(bla) of p = 1.94139e-06

Time = 62

smoothSolver:  Solving for Ux, Initial residual = 0.00409576, Final residual = 3.59792e-06, No Iterations 5
smoothSolver:  Solving for Uy, Initial residual = 0.00610231, Final residual = 4.86593e-06, No Iterations 5
GAMG:  Solving for p, Initial residual = 0.000430623, Final residual = 1.21204e-05, No Iterations 3
GAMG:  Solving for p, Initial residual = 0.000141376, Final residual = 3.55157e-06, No Iterations 3
GAMG:  Solving for p, Initial residual = 4.49037e-05, Final residual = 1.65744e-06, No Iterations 3
GAMG:  Solving for p, Initial residual = 2.39881e-05, Final residual = 8.07222e-07, No Iterations 3
time step continuity errors : sum local = 4.38477e-05, global = -3.0201e-08, cumulative = 6.55589e-06
ExecutionTime = 100.1 s  ClockTime = 100 s

fieldMinMax fieldMinMax1 output:
    min(mag(U)) = 0 at location (0.510757 -0.0257 0.0005)
    max(mag(U)) = 0.130673 at location (0.452305 0.0119769 0.0005)

faceSource inletPressurePlane output:
    areaAverage(bla) of p = 0.214286

faceSource outletPressurePlane output:
    areaAverage(bla) of p = 1.94248e-06

Time = 63

smoothSolver:  Solving for Ux, Initial residual = 0.00406227, Final residual = 3.52278e-06, No Iterations 5
smoothSolver:  Solving for Uy, Initial residual = 0.00611073, Final residual = 4.82394e-06, No Iterations 5
GAMG:  Solving for p, Initial residual = 0.000424369, Final residual = 1.15331e-05, No Iterations 3
GAMG:  Solving for p, Initial residual = 0.000139835, Final residual = 3.35933e-06, No Iterations 3
GAMG:  Solving for p, Initial residual = 4.45405e-05, Final residual = 1.43135e-06, No Iterations 3
GAMG:  Solving for p, Initial residual = 2.34489e-05, Final residual = 7.07859e-07, No Iterations 3
time step continuity errors : sum local = 3.84321e-05, global = -2.43822e-08, cumulative = 6.5315e-06
ExecutionTime = 101.5 s  ClockTime = 101 s

fieldMinMax fieldMinMax1 output:
    min(mag(U)) = 0 at location (0.510757 -0.0257 0.0005)
    max(mag(U)) = 0.130652 at location (0.452305 0.0119769 0.0005)

faceSource inletPressurePlane output:
    areaAverage(bla) of p = 0.214254

faceSource outletPressurePlane output:
    areaAverage(bla) of p = 1.98538e-06

Time = 64

smoothSolver:  Solving for Ux, Initial residual = 0.00405353, Final residual = 3.4664e-06, No Iterations 5
smoothSolver:  Solving for Uy, Initial residual = 0.00607766, Final residual = 4.73875e-06, No Iterations 5
GAMG:  Solving for p, Initial residual = 0.000430276, Final residual = 1.16924e-05, No Iterations 3
GAMG:  Solving for p, Initial residual = 0.000143089, Final residual = 3.32024e-06, No Iterations 3
GAMG:  Solving for p, Initial residual = 4.33141e-05, Final residual = 1.5566e-06, No Iterations 3
GAMG:  Solving for p, Initial residual = 2.28678e-05, Final residual = 8.75979e-07, No Iterations 3
time step continuity errors : sum local = 4.76143e-05, global = -1.64301e-08, cumulative = 6.51507e-06
ExecutionTime = 102.92 s  ClockTime = 103 s

fieldMinMax fieldMinMax1 output:
    min(mag(U)) = 0 at location (0.510757 -0.0257 0.0005)
    max(mag(U)) = 0.130621 at location (0.452305 0.0119769 0.0005)

faceSource inletPressurePlane output:
    areaAverage(bla) of p = 0.214336

faceSource outletPressurePlane output:
    areaAverage(bla) of p = 2.06042e-06

Time = 65

smoothSolver:  Solving for Ux, Initial residual = 0.00408537, Final residual = 3.48363e-06, No Iterations 5
smoothSolver:  Solving for Uy, Initial residual = 0.00615868, Final residual = 4.82808e-06, No Iterations 5
GAMG:  Solving for p, Initial residual = 0.000437975, Final residual = 1.12915e-05, No Iterations 3
GAMG:  Solving for p, Initial residual = 0.00014128, Final residual = 3.08367e-06, No Iterations 3
GAMG:  Solving for p, Initial residual = 4.24152e-05, Final residual = 1.51403e-06, No Iterations 3
GAMG:  Solving for p, Initial residual = 2.28042e-05, Final residual = 8.31745e-07, No Iterations 3
time step continuity errors : sum local = 4.51607e-05, global = -5.62972e-09, cumulative = 6.50944e-06
ExecutionTime = 104.32 s  ClockTime = 104 s

fieldMinMax fieldMinMax1 output:
    min(mag(U)) = 0 at location (0.510757 -0.0257 0.0005)
    max(mag(U)) = 0.130598 at location (0.452305 0.0119769 0.0005)

faceSource inletPressurePlane output:
    areaAverage(bla) of p = 0.214291

faceSource outletPressurePlane output:
    areaAverage(bla) of p = 2.16435e-06

Time = 66

smoothSolver:  Solving for Ux, Initial residual = 0.00413493, Final residual = 3.54536e-06, No Iterations 5
smoothSolver:  Solving for Uy, Initial residual = 0.00611334, Final residual = 4.90857e-06, No Iterations 5
GAMG:  Solving for p, Initial residual = 0.000433062, Final residual = 1.20251e-05, No Iterations 3
GAMG:  Solving for p, Initial residual = 0.000140788, Final residual = 3.51872e-06, No Iterations 3
GAMG:  Solving for p, Initial residual = 4.56184e-05, Final residual = 1.73282e-06, No Iterations 3
GAMG:  Solving for p, Initial residual = 2.40374e-05, Final residual = 8.56983e-07, No Iterations 3
time step continuity errors : sum local = 4.66146e-05, global = -1.02399e-08, cumulative = 6.49921e-06
ExecutionTime = 105.73 s  ClockTime = 106 s

fieldMinMax fieldMinMax1 output:
    min(mag(U)) = 0 at location (0.510757 -0.0257 0.0005)
    max(mag(U)) = 0.130558 at location (0.452305 0.0119769 0.0005)

faceSource inletPressurePlane output:
    areaAverage(bla) of p = 0.214427

faceSource outletPressurePlane output:
    areaAverage(bla) of p = 1.88503e-06

Time = 67

smoothSolver:  Solving for Ux, Initial residual = 0.00410332, Final residual = 3.49884e-06, No Iterations 5
smoothSolver:  Solving for Uy, Initial residual = 0.00613949, Final residual = 4.76382e-06, No Iterations 5
GAMG:  Solving for p, Initial residual = 0.000432002, Final residual = 1.19214e-05, No Iterations 3
GAMG:  Solving for p, Initial residual = 0.00014097, Final residual = 3.43963e-06, No Iterations 3
GAMG:  Solving for p, Initial residual = 4.38388e-05, Final residual = 1.47192e-06, No Iterations 3
GAMG:  Solving for p, Initial residual = 2.25176e-05, Final residual = 7.49508e-07, No Iterations 3
time step continuity errors : sum local = 4.07158e-05, global = -3.25892e-09, cumulative = 6.49595e-06
ExecutionTime = 107.18 s  ClockTime = 107 s

fieldMinMax fieldMinMax1 output:
    min(mag(U)) = 0 at location (0.510757 -0.0257 0.0005)
    max(mag(U)) = 0.130497 at location (0.452305 0.0119769 0.0005)

faceSource inletPressurePlane output:
    areaAverage(bla) of p = 0.214394

faceSource outletPressurePlane output:
    areaAverage(bla) of p = 1.90154e-06

Time = 68

smoothSolver:  Solving for Ux, Initial residual = 0.00402457, Final residual = 3.51165e-06, No Iterations 5
smoothSolver:  Solving for Uy, Initial residual = 0.00603933, Final residual = 4.82631e-06, No Iterations 5
GAMG:  Solving for p, Initial residual = 0.0004298, Final residual = 1.14997e-05, No Iterations 3
GAMG:  Solving for p, Initial residual = 0.00013936, Final residual = 3.39126e-06, No Iterations 3
GAMG:  Solving for p, Initial residual = 4.41491e-05, Final residual = 2.15062e-06, No Iterations 3
GAMG:  Solving for p, Initial residual = 2.41859e-05, Final residual = 9.46593e-07, No Iterations 3
time step continuity errors : sum local = 5.14655e-05, global = -2.79321e-08, cumulative = 6.46801e-06
ExecutionTime = 108.67 s  ClockTime = 109 s

fieldMinMax fieldMinMax1 output:
    min(mag(U)) = 0 at location (0.510757 -0.0257 0.0005)
    max(mag(U)) = 0.130446 at location (0.452305 0.0119769 0.0005)

faceSource inletPressurePlane output:
    areaAverage(bla) of p = 0.214425

faceSource outletPressurePlane output:
    areaAverage(bla) of p = 1.73896e-06

Time = 69

smoothSolver:  Solving for Ux, Initial residual = 0.00401755, Final residual = 3.46082e-06, No Iterations 5
smoothSolver:  Solving for Uy, Initial residual = 0.00612077, Final residual = 4.82799e-06, No Iterations 5
GAMG:  Solving for p, Initial residual = 0.000429512, Final residual = 1.20087e-05, No Iterations 3
GAMG:  Solving for p, Initial residual = 0.000140754, Final residual = 3.39789e-06, No Iterations 3
GAMG:  Solving for p, Initial residual = 4.28724e-05, Final residual = 1.70777e-06, No Iterations 3
GAMG:  Solving for p, Initial residual = 2.33041e-05, Final residual = 1.00614e-06, No Iterations 3
time step continuity errors : sum local = 5.46451e-05, global = -3.08412e-08, cumulative = 6.43717e-06
ExecutionTime = 110.08 s  ClockTime = 110 s

fieldMinMax fieldMinMax1 output:
    min(mag(U)) = 0 at location (0.510757 -0.0257 0.0005)
    max(mag(U)) = 0.130422 at location (0.452305 0.0119769 0.0005)

faceSource inletPressurePlane output:
    areaAverage(bla) of p = 0.214365

faceSource outletPressurePlane output:
    areaAverage(bla) of p = 1.88745e-06

Time = 70

smoothSolver:  Solving for Ux, Initial residual = 0.00397045, Final residual = 3.43862e-06, No Iterations 5
smoothSolver:  Solving for Uy, Initial residual = 0.00600883, Final residual = 4.72931e-06, No Iterations 5
GAMG:  Solving for p, Initial residual = 0.000436558, Final residual = 1.21948e-05, No Iterations 3
GAMG:  Solving for p, Initial residual = 0.000141221, Final residual = 3.29115e-06, No Iterations 3
GAMG:  Solving for p, Initial residual = 4.11065e-05, Final residual = 1.53332e-06, No Iterations 3
GAMG:  Solving for p, Initial residual = 2.12695e-05, Final residual = 1.04641e-06, No Iterations 3
time step continuity errors : sum local = 5.6856e-05, global = -2.36388e-08, cumulative = 6.41353e-06
ExecutionTime = 111.51 s  ClockTime = 111 s

fieldMinMax fieldMinMax1 output:
    min(mag(U)) = 0 at location (0.510757 -0.0257 0.0005)
    max(mag(U)) = 0.130427 at location (0.452305 0.0119769 0.0005)

faceSource inletPressurePlane output:
    areaAverage(bla) of p = 0.214356

faceSource outletPressurePlane output:
    areaAverage(bla) of p = 2.17189e-06

Time = 71

smoothSolver:  Solving for Ux, Initial residual = 0.00412905, Final residual = 3.5327e-06, No Iterations 5
smoothSolver:  Solving for Uy, Initial residual = 0.00623109, Final residual = 5.11563e-06, No Iterations 5
GAMG:  Solving for p, Initial residual = 0.000435041, Final residual = 1.18958e-05, No Iterations 3
GAMG:  Solving for p, Initial residual = 0.000140697, Final residual = 3.50345e-06, No Iterations 3
GAMG:  Solving for p, Initial residual = 4.27239e-05, Final residual = 1.46237e-06, No Iterations 3
GAMG:  Solving for p, Initial residual = 2.14166e-05, Final residual = 6.59327e-07, No Iterations 3
time step continuity errors : sum local = 3.58167e-05, global = -2.57531e-08, cumulative = 6.38778e-06
ExecutionTime = 112.95 s  ClockTime = 113 s

fieldMinMax fieldMinMax1 output:
    min(mag(U)) = 0 at location (0.510757 -0.0257 0.0005)
    max(mag(U)) = 0.130418 at location (0.452305 0.0119769 0.0005)

faceSource inletPressurePlane output:
    areaAverage(bla) of p = 0.214335

faceSource outletPressurePlane output:
    areaAverage(bla) of p = 2.12886e-06

Time = 72

smoothSolver:  Solving for Ux, Initial residual = 0.00401565, Final residual = 3.6403e-06, No Iterations 5
smoothSolver:  Solving for Uy, Initial residual = 0.00605225, Final residual = 4.81532e-06, No Iterations 5
GAMG:  Solving for p, Initial residual = 0.000431361, Final residual = 1.18756e-05, No Iterations 3
GAMG:  Solving for p, Initial residual = 0.000139224, Final residual = 3.47061e-06, No Iterations 3
GAMG:  Solving for p, Initial residual = 4.48306e-05, Final residual = 1.71787e-06, No Iterations 3
GAMG:  Solving for p, Initial residual = 2.53003e-05, Final residual = 8.26187e-07, No Iterations 3
time step continuity errors : sum local = 4.49314e-05, global = -5.01843e-09, cumulative = 6.38276e-06
ExecutionTime = 114.39 s  ClockTime = 114 s

fieldMinMax fieldMinMax1 output:
    min(mag(U)) = 0 at location (0.510757 -0.0257 0.0005)
    max(mag(U)) = 0.130359 at location (0.452305 0.0119769 0.0005)

faceSource inletPressurePlane output:
    areaAverage(bla) of p = 0.214423

faceSource outletPressurePlane output:
    areaAverage(bla) of p = 1.87382e-06

Time = 73

smoothSolver:  Solving for Ux, Initial residual = 0.00404635, Final residual = 3.54283e-06, No Iterations 5
smoothSolver:  Solving for Uy, Initial residual = 0.00610585, Final residual = 4.79814e-06, No Iterations 5
[...]

faceSource outletPressurePlane output:
    areaAverage(bla) of p = -1.45491e-05

Time = 1989

smoothSolver:  Solving for Ux, Initial residual = 0.00301906, Final residual = 2.71532e-06, No Iterations 5
smoothSolver:  Solving for Uy, Initial residual = 0.00531983, Final residual = 4.40064e-06, No Iterations 5
GAMG:  Solving for p, Initial residual = 0.000420983, Final residual = 1.15154e-05, No Iterations 3
GAMG:  Solving for p, Initial residual = 0.00013785, Final residual = 3.46784e-06, No Iterations 3
GAMG:  Solving for p, Initial residual = 4.41337e-05, Final residual = 2.12374e-06, No Iterations 3
GAMG:  Solving for p, Initial residual = 2.47543e-05, Final residual = 1.48325e-06, No Iterations 3
time step continuity errors : sum local = 8.05969e-05, global = 9.61867e-09, cumulative = 5.54089e-06
ExecutionTime = 3074.69 s  ClockTime = 3091 s

fieldMinMax fieldMinMax1 output:
    min(mag(U)) = 0 at location (0.510757 -0.0257 0.0005)
    max(mag(U)) = 0.130786 at location (0.452305 0.0119769 0.0005)

faceSource inletPressurePlane output:
    areaAverage(bla) of p = 0.214211

faceSource outletPressurePlane output:
    areaAverage(bla) of p = -1.46469e-05

Time = 1990

smoothSolver:  Solving for Ux, Initial residual = 0.00308082, Final residual = 2.71033e-06, No Iterations 5
smoothSolver:  Solving for Uy, Initial residual = 0.00524333, Final residual = 4.12767e-06, No Iterations 5
GAMG:  Solving for p, Initial residual = 0.000418551, Final residual = 1.09283e-05, No Iterations 3
GAMG:  Solving for p, Initial residual = 0.000136676, Final residual = 3.46032e-06, No Iterations 3
GAMG:  Solving for p, Initial residual = 4.33834e-05, Final residual = 1.67696e-06, No Iterations 3
GAMG:  Solving for p, Initial residual = 2.2872e-05, Final residual = 1.02195e-06, No Iterations 3
time step continuity errors : sum local = 5.56302e-05, global = 5.1246e-09, cumulative = 5.54602e-06
ExecutionTime = 3076.43 s  ClockTime = 3092 s

fieldMinMax fieldMinMax1 output:
    min(mag(U)) = 0 at location (0.510757 -0.0257 0.0005)
    max(mag(U)) = 0.130799 at location (0.452305 0.0119769 0.0005)

faceSource inletPressurePlane output:
    areaAverage(bla) of p = 0.214271

faceSource outletPressurePlane output:
    areaAverage(bla) of p = -1.45965e-05

Time = 1991

smoothSolver:  Solving for Ux, Initial residual = 0.00308383, Final residual = 2.79e-06, No Iterations 5
smoothSolver:  Solving for Uy, Initial residual = 0.0053574, Final residual = 4.47525e-06, No Iterations 5
GAMG:  Solving for p, Initial residual = 0.000422581, Final residual = 1.18034e-05, No Iterations 3
GAMG:  Solving for p, Initial residual = 0.000138831, Final residual = 3.44203e-06, No Iterations 3
GAMG:  Solving for p, Initial residual = 4.37255e-05, Final residual = 1.59985e-06, No Iterations 3
GAMG:  Solving for p, Initial residual = 2.37399e-05, Final residual = 1.03928e-06, No Iterations 3
time step continuity errors : sum local = 5.65358e-05, global = -1.55761e-08, cumulative = 5.53044e-06
ExecutionTime = 3078.38 s  ClockTime = 3094 s

fieldMinMax fieldMinMax1 output:
    min(mag(U)) = 0 at location (0.510757 -0.0257 0.0005)
    max(mag(U)) = 0.130801 at location (0.452305 0.0119769 0.0005)

faceSource inletPressurePlane output:
    areaAverage(bla) of p = 0.214234

faceSource outletPressurePlane output:
    areaAverage(bla) of p = -1.45865e-05

Time = 1992

smoothSolver:  Solving for Ux, Initial residual = 0.00309194, Final residual = 2.75226e-06, No Iterations 5
smoothSolver:  Solving for Uy, Initial residual = 0.00535884, Final residual = 4.43451e-06, No Iterations 5
GAMG:  Solving for p, Initial residual = 0.000415817, Final residual = 1.17293e-05, No Iterations 3
GAMG:  Solving for p, Initial residual = 0.000135448, Final residual = 3.79286e-06, No Iterations 3
GAMG:  Solving for p, Initial residual = 4.32612e-05, Final residual = 2.5781e-06, No Iterations 3
GAMG:  Solving for p, Initial residual = 2.51939e-05, Final residual = 1.79328e-06, No Iterations 3
time step continuity errors : sum local = 9.76285e-05, global = -2.28779e-08, cumulative = 5.50756e-06
ExecutionTime = 3080.72 s  ClockTime = 3097 s

fieldMinMax fieldMinMax1 output:
    min(mag(U)) = 0 at location (0.510757 -0.0257 0.0005)
    max(mag(U)) = 0.130779 at location (0.452305 0.0119769 0.0005)

faceSource inletPressurePlane output:
    areaAverage(bla) of p = 0.214261

faceSource outletPressurePlane output:
    areaAverage(bla) of p = -1.47431e-05

Time = 1993

smoothSolver:  Solving for Ux, Initial residual = 0.00311996, Final residual = 2.64873e-06, No Iterations 5
smoothSolver:  Solving for Uy, Initial residual = 0.00543979, Final residual = 4.30775e-06, No Iterations 5
GAMG:  Solving for p, Initial residual = 0.000420836, Final residual = 1.0785e-05, No Iterations 3
GAMG:  Solving for p, Initial residual = 0.00013444, Final residual = 3.42365e-06, No Iterations 3
GAMG:  Solving for p, Initial residual = 4.22264e-05, Final residual = 1.53214e-06, No Iterations 3
GAMG:  Solving for p, Initial residual = 2.3169e-05, Final residual = 6.69469e-07, No Iterations 3
time step continuity errors : sum local = 3.64223e-05, global = -5.69879e-08, cumulative = 5.45058e-06
ExecutionTime = 3082.86 s  ClockTime = 3099 s

fieldMinMax fieldMinMax1 output:
    min(mag(U)) = 0 at location (0.510757 -0.0257 0.0005)
    max(mag(U)) = 0.13073 at location (0.452305 0.0119769 0.0005)

faceSource inletPressurePlane output:
    areaAverage(bla) of p = 0.214239

faceSource outletPressurePlane output:
    areaAverage(bla) of p = -1.47503e-05

Time = 1994

smoothSolver:  Solving for Ux, Initial residual = 0.00309748, Final residual = 2.75192e-06, No Iterations 5
smoothSolver:  Solving for Uy, Initial residual = 0.00531274, Final residual = 4.29227e-06, No Iterations 5
GAMG:  Solving for p, Initial residual = 0.000424054, Final residual = 1.17906e-05, No Iterations 3
GAMG:  Solving for p, Initial residual = 0.000139404, Final residual = 3.64293e-06, No Iterations 3
GAMG:  Solving for p, Initial residual = 4.42587e-05, Final residual = 1.72871e-06, No Iterations 3
GAMG:  Solving for p, Initial residual = 2.34008e-05, Final residual = 1.21388e-06, No Iterations 3
time step continuity errors : sum local = 6.60713e-05, global = -6.35715e-08, cumulative = 5.387e-06
ExecutionTime = 3084.34 s  ClockTime = 3100 s

fieldMinMax fieldMinMax1 output:
    min(mag(U)) = 0 at location (0.510757 -0.0257 0.0005)
    max(mag(U)) = 0.130659 at location (0.452305 0.0119769 0.0005)

faceSource inletPressurePlane output:
    areaAverage(bla) of p = 0.214283

faceSource outletPressurePlane output:
    areaAverage(bla) of p = -1.45225e-05

Time = 1995

smoothSolver:  Solving for Ux, Initial residual = 0.0031419, Final residual = 2.84922e-06, No Iterations 5
smoothSolver:  Solving for Uy, Initial residual = 0.00543805, Final residual = 4.57655e-06, No Iterations 5
GAMG:  Solving for p, Initial residual = 0.000426316, Final residual = 1.19585e-05, No Iterations 3
GAMG:  Solving for p, Initial residual = 0.000139001, Final residual = 3.36869e-06, No Iterations 3
GAMG:  Solving for p, Initial residual = 4.19359e-05, Final residual = 1.7089e-06, No Iterations 3
GAMG:  Solving for p, Initial residual = 2.1312e-05, Final residual = 8.96591e-07, No Iterations 3
time step continuity errors : sum local = 4.87657e-05, global = -6.55027e-08, cumulative = 5.3215e-06
ExecutionTime = 3085.91 s  ClockTime = 3102 s

fieldMinMax fieldMinMax1 output:
    min(mag(U)) = 0 at location (0.510757 -0.0257 0.0005)
    max(mag(U)) = 0.130577 at location (0.452305 0.0119769 0.0005)

faceSource inletPressurePlane output:
    areaAverage(bla) of p = 0.214233

faceSource outletPressurePlane output:
    areaAverage(bla) of p = -1.447e-05

Time = 1996

smoothSolver:  Solving for Ux, Initial residual = 0.00311086, Final residual = 2.62104e-06, No Iterations 5
smoothSolver:  Solving for Uy, Initial residual = 0.00529048, Final residual = 4.18302e-06, No Iterations 5
GAMG:  Solving for p, Initial residual = 0.000418932, Final residual = 1.15443e-05, No Iterations 3
GAMG:  Solving for p, Initial residual = 0.000135468, Final residual = 3.50321e-06, No Iterations 3
GAMG:  Solving for p, Initial residual = 4.38778e-05, Final residual = 1.71963e-06, No Iterations 3
GAMG:  Solving for p, Initial residual = 2.37827e-05, Final residual = 1.72223e-06, No Iterations 3
time step continuity errors : sum local = 9.37598e-05, global = -1.18537e-08, cumulative = 5.30965e-06
ExecutionTime = 3087.55 s  ClockTime = 3104 s

fieldMinMax fieldMinMax1 output:
    min(mag(U)) = 0 at location (0.510757 -0.0257 0.0005)
    max(mag(U)) = 0.130514 at location (0.452305 0.0119769 0.0005)

faceSource inletPressurePlane output:
    areaAverage(bla) of p = 0.214317

faceSource outletPressurePlane output:
    areaAverage(bla) of p = -1.42549e-05

Time = 1997

smoothSolver:  Solving for Ux, Initial residual = 0.0031005, Final residual = 2.71129e-06, No Iterations 5
smoothSolver:  Solving for Uy, Initial residual = 0.00530007, Final residual = 4.1418e-06, No Iterations 5
GAMG:  Solving for p, Initial residual = 0.000418146, Final residual = 1.15632e-05, No Iterations 3
GAMG:  Solving for p, Initial residual = 0.000137578, Final residual = 3.65289e-06, No Iterations 3
GAMG:  Solving for p, Initial residual = 4.5542e-05, Final residual = 1.65669e-06, No Iterations 3
GAMG:  Solving for p, Initial residual = 2.48932e-05, Final residual = 9.12664e-07, No Iterations 3
time step continuity errors : sum local = 4.96506e-05, global = -1.22972e-08, cumulative = 5.29735e-06
ExecutionTime = 3088.95 s  ClockTime = 3105 s

fieldMinMax fieldMinMax1 output:
    min(mag(U)) = 0 at location (0.510757 -0.0257 0.0005)
    max(mag(U)) = 0.130498 at location (0.452305 0.0119769 0.0005)

faceSource inletPressurePlane output:
    areaAverage(bla) of p = 0.214258

faceSource outletPressurePlane output:
    areaAverage(bla) of p = -1.42615e-05

Time = 1998

smoothSolver:  Solving for Ux, Initial residual = 0.00303288, Final residual = 2.67295e-06, No Iterations 5
smoothSolver:  Solving for Uy, Initial residual = 0.00528625, Final residual = 4.30528e-06, No Iterations 5
GAMG:  Solving for p, Initial residual = 0.000412357, Final residual = 1.18031e-05, No Iterations 3
GAMG:  Solving for p, Initial residual = 0.000135304, Final residual = 3.63581e-06, No Iterations 3
GAMG:  Solving for p, Initial residual = 4.3437e-05, Final residual = 1.74753e-06, No Iterations 3
GAMG:  Solving for p, Initial residual = 2.36105e-05, Final residual = 9.07484e-07, No Iterations 3
time step continuity errors : sum local = 4.94014e-05, global = 7.70468e-09, cumulative = 5.30506e-06
ExecutionTime = 3090.77 s  ClockTime = 3107 s

fieldMinMax fieldMinMax1 output:
    min(mag(U)) = 0 at location (0.510757 -0.0257 0.0005)
    max(mag(U)) = 0.130514 at location (0.452305 0.0119769 0.0005)

faceSource inletPressurePlane output:
    areaAverage(bla) of p = 0.21429

faceSource outletPressurePlane output:
    areaAverage(bla) of p = -1.45243e-05

Time = 1999

smoothSolver:  Solving for Ux, Initial residual = 0.00307737, Final residual = 2.61755e-06, No Iterations 5
smoothSolver:  Solving for Uy, Initial residual = 0.00536653, Final residual = 4.34715e-06, No Iterations 5
GAMG:  Solving for p, Initial residual = 0.000422244, Final residual = 1.1483e-05, No Iterations 3
GAMG:  Solving for p, Initial residual = 0.000134933, Final residual = 3.35284e-06, No Iterations 3
GAMG:  Solving for p, Initial residual = 4.35477e-05, Final residual = 1.73357e-06, No Iterations 3
GAMG:  Solving for p, Initial residual = 2.38821e-05, Final residual = 1.17119e-06, No Iterations 3
time step continuity errors : sum local = 6.37373e-05, global = -1.89291e-08, cumulative = 5.28613e-06
ExecutionTime = 3092.28 s  ClockTime = 3108 s

fieldMinMax fieldMinMax1 output:
    min(mag(U)) = 0 at location (0.510757 -0.0257 0.0005)
    max(mag(U)) = 0.130516 at location (0.452305 0.0119769 0.0005)

faceSource inletPressurePlane output:
    areaAverage(bla) of p = 0.21432

faceSource outletPressurePlane output:
    areaAverage(bla) of p = -1.46563e-05

Time = 2000

smoothSolver:  Solving for Ux, Initial residual = 0.00307036, Final residual = 2.72108e-06, No Iterations 5
smoothSolver:  Solving for Uy, Initial residual = 0.00532337, Final residual = 4.30377e-06, No Iterations 5
GAMG:  Solving for p, Initial residual = 0.000421624, Final residual = 1.09754e-05, No Iterations 3
GAMG:  Solving for p, Initial residual = 0.000136797, Final residual = 3.36639e-06, No Iterations 3
GAMG:  Solving for p, Initial residual = 4.17702e-05, Final residual = 1.59576e-06, No Iterations 3
GAMG:  Solving for p, Initial residual = 2.16679e-05, Final residual = 1.24504e-06, No Iterations 3
time step continuity errors : sum local = 6.78297e-05, global = -1.02684e-07, cumulative = 5.18344e-06
ExecutionTime = 3094.57 s  ClockTime = 3111 s

fieldMinMax fieldMinMax1 output:
    min(mag(U)) = 0 at location (0.510757 -0.0257 0.0005)
    max(mag(U)) = 0.130489 at location (0.452305 0.0119769 0.0005)

faceSource inletPressurePlane output:
    areaAverage(bla) of p = 0.214382

faceSource outletPressurePlane output:
    areaAverage(bla) of p = -1.476e-05

Time = 2001

smoothSolver:  Solving for Ux, Initial residual = 0.00304823, Final residual = 2.77796e-06, No Iterations 5
smoothSolver:  Solving for Uy, Initial residual = 0.00537175, Final residual = 4.53888e-06, No Iterations 5
GAMG:  Solving for p, Initial residual = 0.000422033, Final residual = 1.07091e-05, No Iterations 3
GAMG:  Solving for p, Initial residual = 0.000137427, Final residual = 3.22664e-06, No Iterations 3
GAMG:  Solving for p, Initial residual = 4.1959e-05, Final residual = 1.62916e-06, No Iterations 3
GAMG:  Solving for p, Initial residual = 2.29638e-05, Final residual = 8.07752e-07, No Iterations 3
time step continuity errors : sum local = 4.40345e-05, global = -1.04534e-07, cumulative = 5.07891e-06
ExecutionTime = 3096.01 s  ClockTime = 3112 s

fieldMinMax fieldMinMax1 output:
    min(mag(U)) = 0 at location (0.510757 -0.0257 0.0005)
    max(mag(U)) = 0.130473 at location (0.452305 0.0119769 0.0005)

faceSource inletPressurePlane output:
    areaAverage(bla) of p = 0.214493

faceSource outletPressurePlane output:
    areaAverage(bla) of p = -1.43875e-05

Time = 2002

smoothSolver:  Solving for Ux, Initial residual = 0.00308381, Final residual = 2.68344e-06, No Iterations 5
smoothSolver:  Solving for Uy, Initial residual = 0.00532592, Final residual = 4.20662e-06, No Iterations 5
GAMG:  Solving for p, Initial residual = 0.000423021, Final residual = 1.13881e-05, No Iterations 3
GAMG:  Solving for p, Initial residual = 0.000139855, Final residual = 3.49396e-06, No Iterations 3
GAMG:  Solving for p, Initial residual = 4.28759e-05, Final residual = 1.61516e-06, No Iterations 3
GAMG:  Solving for p, Initial residual = 2.21199e-05, Final residual = 8.34289e-07, No Iterations 3
time step continuity errors : sum local = 4.53976e-05, global = -8.14824e-08, cumulative = 4.99743e-06
ExecutionTime = 3097.46 s  ClockTime = 3114 s

fieldMinMax fieldMinMax1 output:
    min(mag(U)) = 0 at location (0.510757 -0.0257 0.0005)
    max(mag(U)) = 0.130486 at location (0.452305 0.0119769 0.0005)

faceSource inletPressurePlane output:
    areaAverage(bla) of p = 0.214406

faceSource outletPressurePlane output:
    areaAverage(bla) of p = -1.40883e-05

Time = 2003

smoothSolver:  Solving for Ux, Initial residual = 0.00309429, Final residual = 2.72913e-06, No Iterations 5
smoothSolver:  Solving for Uy, Initial residual = 0.00532844, Final residual = 4.40685e-06, No Iterations 5
GAMG:  Solving for p, Initial residual = 0.000423452, Final residual = 1.09726e-05, No Iterations 3
GAMG:  Solving for p, Initial residual = 0.000138535, Final residual = 3.2847e-06, No Iterations 3
GAMG:  Solving for p, Initial residual = 4.27719e-05, Final residual = 1.61398e-06, No Iterations 3
GAMG:  Solving for p, Initial residual = 2.52274e-05, Final residual = 8.67259e-07, No Iterations 3
time step continuity errors : sum local = 4.71398e-05, global = -6.90209e-09, cumulative = 4.99052e-06
ExecutionTime = 3098.93 s  ClockTime = 3115 s

fieldMinMax fieldMinMax1 output:
    min(mag(U)) = 0 at location (0.510757 -0.0257 0.0005)
    max(mag(U)) = 0.130507 at location (0.452305 0.0119769 0.0005)

faceSource inletPressurePlane output:
    areaAverage(bla) of p = 0.21425

faceSource outletPressurePlane output:
    areaAverage(bla) of p = -1.3978e-05

Time = 2004

smoothSolver:  Solving for Ux, Initial residual = 0.00316032, Final residual = 2.80465e-06, No Iterations 5
smoothSolver:  Solving for Uy, Initial residual = 0.00542122, Final residual = 4.31591e-06, No Iterations 5
GAMG:  Solving for p, Initial residual = 0.000420368, Final residual = 1.17133e-05, No Iterations 3
GAMG:  Solving for p, Initial residual = 0.000137948, Final residual = 3.61879e-06, No Iterations 3
GAMG:  Solving for p, Initial residual = 4.36069e-05, Final residual = 1.70041e-06, No Iterations 3
GAMG:  Solving for p, Initial residual = 2.37482e-05, Final residual = 7.61081e-07, No Iterations 3
time step continuity errors : sum local = 4.14275e-05, global = 8.18645e-08, cumulative = 5.07239e-06
ExecutionTime = 3100.42 s  ClockTime = 3117 s

fieldMinMax fieldMinMax1 output:
    min(mag(U)) = 0 at location (0.510757 -0.0257 0.0005)
    max(mag(U)) = 0.130539 at location (0.452305 0.0119769 0.0005)

faceSource inletPressurePlane output:
    areaAverage(bla) of p = 0.214269

faceSource outletPressurePlane output:
    areaAverage(bla) of p = -1.41578e-05

Time = 2005

smoothSolver:  Solving for Ux, Initial residual = 0.00308219, Final residual = 2.5074e-06, No Iterations 5
smoothSolver:  Solving for Uy, Initial residual = 0.00533698, Final residual = 4.23586e-06, No Iterations 5
GAMG:  Solving for p, Initial residual = 0.000425107, Final residual = 1.10231e-05, No Iterations 3
GAMG:  Solving for p, Initial residual = 0.000136648, Final residual = 3.04596e-06, No Iterations 3
GAMG:  Solving for p, Initial residual = 4.30061e-05, Final residual = 1.50342e-06, No Iterations 3
GAMG:  Solving for p, Initial residual = 2.45186e-05, Final residual = 6.97655e-07, No Iterations 3
time step continuity errors : sum local = 3.79551e-05, global = 1.3075e-07, cumulative = 5.20314e-06
ExecutionTime = 3101.86 s  ClockTime = 3118 s

fieldMinMax fieldMinMax1 output:
    min(mag(U)) = 0 at location (0.510757 -0.0257 0.0005)
    max(mag(U)) = 0.130598 at location (0.452305 0.0119769 0.0005)

faceSource inletPressurePlane output:
    areaAverage(bla) of p = 0.214235

faceSource outletPressurePlane output:
    areaAverage(bla) of p = -1.43721e-05

Time = 2006

smoothSolver:  Solving for Ux, Initial residual = 0.00307541, Final residual = 2.67414e-06, No Iterations 5
smoothSolver:  Solving for Uy, Initial residual = 0.00524466, Final residual = 4.20657e-06, No Iterations 5
GAMG:  Solving for p, Initial residual = 0.000426742, Final residual = 1.04945e-05, No Iterations 3
GAMG:  Solving for p, Initial residual = 0.000137825, Final residual = 2.82503e-06, No Iterations 3
GAMG:  Solving for p, Initial residual = 4.17847e-05, Final residual = 1.63381e-06, No Iterations 3
GAMG:  Solving for p, Initial residual = 2.32814e-05, Final residual = 7.9994e-07, No Iterations 3
time step continuity errors : sum local = 4.35892e-05, global = 9.3175e-08, cumulative = 5.29631e-06
ExecutionTime = 3103.33 s  ClockTime = 3119 s

fieldMinMax fieldMinMax1 output:
    min(mag(U)) = 0 at location (0.510757 -0.0257 0.0005)
    max(mag(U)) = 0.130674 at location (0.452305 0.0119769 0.0005)

faceSource inletPressurePlane output:
    areaAverage(bla) of p = 0.214361

faceSource outletPressurePlane output:
    areaAverage(bla) of p = -1.46343e-05

Time = 2007

smoothSolver:  Solving for Ux, Initial residual = 0.00309654, Final residual = 2.70029e-06, No Iterations 5
smoothSolver:  Solving for Uy, Initial residual = 0.00532883, Final residual = 4.34999e-06, No Iterations 5
